Fecha, Calle, Tipo de Siniestro, Gravedad, Dia Semana, Hora, Departamento, Localidad, X, Y 
8/12/2016, CALLE 20, COLISIÓN ENTRE VEHÍCULOS, LEVE, JUEVES, 18, COLONIA, JUAN LACAZE, 458585, 6191420 
5/7/2016, , DESPISTE, SIN LESIONADOS, MARTES, 12, CANELONES, SIN DATOS, 625050, 6182455 
5/1/2016, RUTA 8 VIEJA  Y CALLE F , CAÍDA, LEVE, MARTES, 16, CANELONES, OLMOS, 597995, 6159815 
21/9/2016, TELEMACO MORALES, CAÍDA, LEVE, MIÉRCOLES, 22, DURAZNO, DURAZNO, 544730, 6307485 
11/2/2016, TULA SUAREZ DE CUTINELLA, CAÍDA, GRAVE, JUEVES, 20, COLONIA, COLONIA DEL SACRAMENTO, 420450, 6189545 
25/2/2016, GENERAL JUAN ANTONIO LAVALLEJA, COLISIÓN ENTRE VEHÍCULOS, LEVE, JUEVES, 21, SAN JOSE, LIBERTAD, 535665, 6167860 
31/3/2016, DOCTOR POUEY, ATROPELLO DE PEATÓN, SIN LESIONADOS, JUEVES, 15, CANELONES, SIN DATOS, 571065, 6156380 
29/11/2016, NO SE INGRESO, COLISIÓN CON OBSTÁCULO EN CALZADA, GRAVE, MARTES, 8, SORIANO, SIN DATOS, 438785, 6279630 
16/8/2016, R/74 Y CAMINO DEL ESTE, COLISIÓN ENTRE VEHÍCULOS, LEVE, MARTES, 6, CANELONES, JOAQUIN SUAREZ, 588640, 6155915 
19/7/2016, JULIO SOSA, ATROPELLO DE ANIMALES, LEVE, MARTES, 20, CANELONES, SIN DATOS, 571760, 6155705 
2/2/2016, GENERAL JUAN ANTONIO LAVALLEJA, DESPISTE, LEVE, MARTES, 10, SORIANO, VILLA SORIANO, 377200, 6304090 
26/4/2016, , COLISIÓN ENTRE VEHÍCULOS, LEVE, MARTES, 7, CANELONES, VILLA CRESPO Y SAN ANDRES, 581270, 6155250 
10/3/2016, JUAN FREY, CAÍDA, LEVE, JUEVES, 14, COLONIA, NUEVA HELVECIA, 480020, 6206520 
14/12/2016,  GENERAL JOSE G. ARTIGAS, COLISIÓN ENTRE VEHÍCULOS, LEVE, MIÉRCOLES, 18, CANELONES, ATLANTIDA, 613440, 6151400 
6/9/2016, INGENIERO CARLOS A. MAGNONE, COLISIÓN ENTRE VEHÍCULOS, LEVE, MARTES, 15, SORIANO, MERCEDES, 402580, 6320265 
25/5/2016, NO SE INGRESO, ATROPELLO DE ANIMALES, LEVE, MIÉRCOLES, 19, CANELONES, SIN DATOS, 594435, 6166335 
3/8/2016, POCHO FERNANDEZ, COLISIÓN ENTRE VEHÍCULOS, LEVE, MIÉRCOLES, 10, FLORIDA, FLORIDA, 571770, 6226930 
17/5/2016, NO SE INGRESO, DESPISTE, SIN LESIONADOS, MARTES, 6, CANELONES, SIN DATOS, 620000, 6163130 
24/12/2016, NO SE INGRESO, DESPISTE, GRAVE, SÁBADO, 3, CANELONES, PASO PALOMEQUE, 567940, 6180200 
7/12/2016, , COLISIÓN ENTRE VEHÍCULOS, LEVE, MIÉRCOLES, 12, SORIANO, MERCEDES, 403740, 6321055 
19/7/2016, DOMINGO GALLO, COLISIÓN ENTRE VEHÍCULOS, LEVE, MARTES, 17, CANELONES, SIN DATOS, 570000, 6159880 
5/4/2016, AVENIDA DE LOS PINOS Y CALLE 3, CAÍDA, LEVE, MARTES, 13, CANELONES, PINAMAR - PINEPARK, 604250, 6150090 
29/3/2016, WILSON FERREIRA ALDUNATE, COLISIÓN ENTRE VEHÍCULOS, SIN LESIONADOS, MARTES, 12, FLORES, TRINIDAD, 509835, 6291480 
17/5/2016, NO SE INGRESO, COLISIÓN ENTRE VEHÍCULOS, LEVE, MARTES, 12, SAN JOSE, DELTA DEL TIGRE Y VILLAS, 558045, 6151565 
8/3/2016, NO SE INGRESO, CAÍDA, LEVE, MARTES, 6, CANELONES, SIN DATOS, 567530, 6173465 
13/7/2016, GENERAL JOSE G. ARTIGAS, COLISIÓN ENTRE VEHÍCULOS, LEVE, MIÉRCOLES, 22, SAN JOSE, SAN JOSE DE MAYO, 526220, 6200325 
29/6/2016, AVENIDA DE LOS MEDANOS, COLISIÓN ENTRE VEHÍCULOS, GRAVE, MIÉRCOLES, 14, CANELONES, LOMAS DE SOLYMAR, 597035, 6147265 
24/11/2016, NO SE INGRESO, DESPISTE, SIN LESIONADOS, JUEVES, 7, FLORES, SIN DATOS, 511385, 6286570 
19/1/2016, NO SE INGRESO, COLISIÓN CON OBSTÁCULO EN CALZADA, LEVE, MARTES, 4, SORIANO, SIN DATOS, 405215, 6319320 
25/5/2016, Camino Paraje Cuchilla del Perdido, DESPISTE, FATAL, MIÉRCOLES, 17, SORIANO, SIN DATOS, 472875, 6265820 
12/4/2016, NO SE INGRESO, ATROPELLO DE ANIMALES, SIN LESIONADOS, MARTES, 20, CANELONES, SIN DATOS, 586765, 6161740 
28/6/2016, LUIS ALBERTO DE HERRERA, COLISIÓN ENTRE VEHÍCULOS, SIN LESIONADOS, MARTES, 20, CANELONES, SIN DATOS, 572085, 6157160 
5/1/2016, NO SE INGRESO, DESPISTE, SIN LESIONADOS, MARTES, 18, CANELONES, SIN DATOS, 567685, 6172080 
23/3/2016, NO SE INGRESO, ATROPELLO DE PEATÓN, LEVE, MIÉRCOLES, 14, CANELONES, NEPTUNIA, 603295, 6150780 
28/9/2016, VALENCIA, COLISIÓN ENTRE VEHÍCULOS, LEVE, MIÉRCOLES, 11, SAN JOSE, DELTA DEL TIGRE Y VILLAS, 555375, 6154095 
2/8/2016, JOSE PEDRO VARELA, COLISIÓN ENTRE VEHÍCULOS, LEVE, MARTES, 20, CANELONES, SIN DATOS, 572090, 6156755 
29/3/2016, IGNACIO BARRIOS, COLISIÓN ENTRE VEHÍCULOS, LEVE, MARTES, 17, COLONIA, CARMELO, 381695, 6237040 
15/11/2016, BRASIL, COLISIÓN ENTRE VEHÍCULOS, LEVE, MARTES, 21, FLORES, TRINIDAD, 509205, 6290805 
10/5/2016, BLANDENGUES, COLISIÓN ENTRE VEHÍCULOS, LEVE, MARTES, 9, CANELONES, SIN DATOS, 572260, 6157735 
22/6/2016, WILSON FERREIRA ALDUNATE, COLISIÓN ENTRE VEHÍCULOS, SIN LESIONADOS, MIÉRCOLES, 15, CANELONES, SIN DATOS, 571370, 6157240 
5/7/2016, DOCTOR MORQUIO, CAÍDA, LEVE, MARTES, 16, DURAZNO, DURAZNO, 544635, 6306030 
27/12/2016, RUTA CATORCE, ATROPELLO DE ANIMALES, SIN LESIONADOS, MARTES, 22, DURAZNO, SIN DATOS, 593670, 6321795 
22/11/2016, NO SE INGRESO, DESPISTE, LEVE, MARTES, 6, CANELONES, SIN DATOS, 568975, 6157445 
26/1/2016, FLORENCIO SANCHEZ, COLISIÓN ENTRE VEHÍCULOS, LEVE, MARTES, 23, SORIANO, MERCEDES, 403330, 6320220 
7/6/2016, GUATEMALA, COLISIÓN ENTRE VEHÍCULOS, SIN LESIONADOS, MARTES, 19, CANELONES, SIN DATOS, 572065, 6158710 
15/11/2016, GENERAL JOSE G. ARTIGAS, COLISIÓN ENTRE VEHÍCULOS, LEVE, MARTES, 20, SAN JOSE, SAN JOSE DE MAYO, 526145, 6200660 
16/2/2016, NO SE INGRESO, COLISIÓN ENTRE VEHÍCULOS, SIN LESIONADOS, MARTES, 6, CANELONES, NEPTUNIA, 602325, 6150505 
16/3/2016, FRAY UBEDA, COLISIÓN ENTRE VEHÍCULOS, LEVE, MIÉRCOLES, 11, FLORES, TRINIDAD, 509125, 6291415 
24/11/2016, ELIO ZINOLA, COLISIÓN ENTRE VEHÍCULOS, SIN LESIONADOS, JUEVES, 11, CANELONES, PANDO, 595040, 6157305 
21/12/2016, RUTA 87 km. 44, COLISIÓN ENTRE VEHÍCULOS, FATAL, MIÉRCOLES, 20, CANELONES, SIN DATOS, 603825, 6155640 
25/5/2016, DOCTOR LUIS ALBERTO DE HERRERA, COLISIÓN ENTRE VEHÍCULOS, LEVE, MIÉRCOLES, 8, FLORIDA, FLORIDA, 572640, 6226810 
13/12/2016, DOCTOR LUIS ALBERTO DE HERRERA, COLISIÓN ENTRE VEHÍCULOS, LEVE, MARTES, 10, FLORIDA, FLORIDA, 572570, 6226740 
6/7/2016, DOCTOR LUIS ALBERTO DE HERRERA, COLISIÓN ENTRE VEHÍCULOS, SIN LESIONADOS, MIÉRCOLES, 13, FLORES, TRINIDAD, 509430, 6291305 
5/4/2016, JOSE BATLLE Y ORDOÑEZ, COLISIÓN ENTRE VEHÍCULOS, LEVE, MARTES, 20, COLONIA, NUEVA HELVECIA, 478450, 6203745 
19/1/2016, SANTIAGO VAZQUEZ, COLISIÓN ENTRE VEHÍCULOS, SIN LESIONADOS, MARTES, 16, DURAZNO, DURAZNO, 544075, 6305205 
22/12/2016, VIRGEN DE LOURDES, COLISIÓN ENTRE VEHÍCULOS, LEVE, JUEVES, 12, CANELONES, SIN DATOS, 572585, 6158265 
24/5/2016, NO SE INGRESO, COLISIÓN CON OBSTÁCULO EN CALZADA, LEVE, MARTES, 15, SAN JOSE, SIN DATOS, 505490, 6189460 
26/3/2016, , DESPISTE, GRAVE, SÁBADO, 12, FLORIDA, SIN DATOS, 584005, 6254860 
13/9/2016, AVENIDA GENERAL FRUCTUOSO RIVERA, COLISIÓN ENTRE VEHÍCULOS, SIN LESIONADOS, MARTES, 9, CANELONES, SIN DATOS, 571785, 6156845 
6/7/2016, GENERAL FLORES, COLISIÓN ENTRE VEHÍCULOS, LEVE, MIÉRCOLES, 10, COLONIA, COLONIA DEL SACRAMENTO, 422090, 6185345 
17/5/2016, M. FONTES ARRILLAGA, CAÍDA, LEVE, MARTES, 16, FLORIDA, SARANDI GRANDE, 562205, 6268015 
25/5/2016, ANTONIO PAN, COLISIÓN ENTRE VEHÍCULOS, SIN LESIONADOS, MIÉRCOLES, 14, SAN JOSE, SAN JOSE DE MAYO, 527300, 6200380 
12/1/2016, NO SE INGRESO, COLISIÓN ENTRE VEHÍCULOS, LEVE, MARTES, 2, FLORIDA, SIN DATOS, 596990, 6207110 
11/5/2016, INES DURAN, COLISIÓN ENTRE VEHÍCULOS, GRAVE, MIÉRCOLES, 18, FLORES, TRINIDAD, 510150, 6291760 
22/11/2016, DIECIOCHO DE JULIO, COLISIÓN CON OBSTÁCULO EN CALZADA, SIN LESIONADOS, MARTES, 18, FLORIDA, FLORIDA, 572785, 6226515 
30/8/2016, NO SE INGRESO, COLISIÓN ENTRE VEHÍCULOS, SIN LESIONADOS, MARTES, 18, COLONIA, SIN DATOS, 420465, 6251795 
20/12/2016, INES DURAN, CAÍDA, LEVE, MARTES, 9, FLORES, TRINIDAD, 509945, 6291770 
31/8/2016, GENERAL JUAN ANTONIO LAVALLEJA, CAÍDA, GRAVE, MIÉRCOLES, 5, SORIANO, VILLA SORIANO, 377015, 6303600 
9/3/2016, RUTA 32, DESPISTE, LEVE, MIÉRCOLES, 4, CANELONES, SIN DATOS, 575355, 6166035 
27/4/2016, GENERAL JOSE G. ARTIGAS, ATROPELLO DE PEATÓN, LEVE, MIÉRCOLES, 9, SAN JOSE, SAN JOSE DE MAYO, 526195, 6200435 
6/4/2016, COLON, CAÍDA, LEVE, MIÉRCOLES, 21, SAN JOSE, ECILDA PAULLIER, 495850, 6198035 
21/12/2016, YAMADU RODRIGUEZ, COLISIÓN ENTRE VEHÍCULOS, GRAVE, MIÉRCOLES, 12, SAN JOSE, PLAYA PASCUAL, 549895, 6155285 
10/6/2016, LA MACANA, COLISIÓN ENTRE VEHÍCULOS, LEVE, VIERNES, 9, FLORIDA, SIN DATOS, 572970, 6229475 
18/5/2016, NO SE INGRESO, COLISIÓN ENTRE VEHÍCULOS, LEVE, MIÉRCOLES, 19, SAN JOSE, SIN DATOS, 518770, 6179230 
2/8/2016, CASAGRANDE , COLISIÓN ENTRE VEHÍCULOS, LEVE, MARTES, 16, SORIANO, MERCEDES, 403945, 6319820 
14/6/2016, RUTA SESENTA Y CUATRO, ATROPELLO DE ANIMALES, SIN LESIONADOS, MARTES, 6, CANELONES, CANELONES, 565730, 6178895 
16/2/2016, RUTA 8, COLISIÓN ENTRE VEHÍCULOS, SIN LESIONADOS, MARTES, 14, CANELONES, PIEDRA DEL TORO, 601630, 6159400 
20/9/2016, CIUDAD DE MONTEVIDEO, COLISIÓN ENTRE VEHÍCULOS, LEVE, MARTES, 19, CANELONES, ATLANTIDA, 613685, 6151865 
27/1/2016, RUTA 8 KM 25 Y CALLE LOS PARAISOS, COLISIÓN ENTRE VEHÍCULOS, LEVE, MIÉRCOLES, 17, CANELONES, BARROS BLANCOS, 590605, 6153305 
3/11/2016, ANSINA, COLISIÓN ENTRE VEHÍCULOS, GRAVE, JUEVES, 16, SAN JOSE, SAN JOSE DE MAYO, 527180, 6200900 
15/3/2016, DOCTOR LUIS ALBERTO DE HERRERA, CAÍDA, LEVE, MARTES, 5, DURAZNO, DURAZNO, 544235, 6306825 
2/2/2016, DIECIOCHO DE JULIO, CAÍDA, GRAVE, MARTES, 22, CANELONES, SIN DATOS, 570885, 6155440 
13/1/2016, DIECIOCHO DE JULIO, COLISIÓN ENTRE VEHÍCULOS, LEVE, MIÉRCOLES, 19, COLONIA, NUEVA HELVECIA, 478830, 6206495 
11/5/2016,  ROTONDA, COLISIÓN ENTRE VEHÍCULOS, LEVE, MIÉRCOLES, 22, SAN JOSE, PLAYA PASCUAL, 550430, 6155730 
14/4/2016,  RAMBLA Y CALLE “E”., COLISIÓN ENTRE VEHÍCULOS, LEVE, JUEVES, 19, CANELONES, PARQUE DEL PLATA, 617295, 6152920 
18/2/2016, RUTA 6 KM 230 PUNTAS DE MALBAJAR, DESPISTE, SIN LESIONADOS, JUEVES, 19, DURAZNO, SIN DATOS, 641855, 6333555 
1/6/2016, GENERAL ARTIGAS, COLISIÓN ENTRE VEHÍCULOS, LEVE, MIÉRCOLES, 21, CANELONES, SIN DATOS, 571045, 6154700 
7/9/2016, GENERAL FLORES, COLISIÓN ENTRE VEHÍCULOS, SIN LESIONADOS, MIÉRCOLES, 19, COLONIA, COLONIA DEL SACRAMENTO, 421850, 6185340 
21/12/2016, DE SOTTO , ATROPELLO DE PEATÓN, LEVE, MIÉRCOLES, 12, SAN JOSE, DELTA DEL TIGRE Y VILLAS, 553425, 6153930 
20/9/2016, INGENIERO LINDOLFO GONZALEZ, ATROPELLO DE PEATÓN, SIN LESIONADOS, MARTES, 19, CANELONES, SIN DATOS, 573040, 6158040 
6/4/2016, FRUCTUOSO RIVERA, COLISIÓN ENTRE VEHÍCULOS, LEVE, MIÉRCOLES, 20, DURAZNO, DURAZNO, 543955, 6306750 
25/10/2016, CALLE A, CAÍDA, LEVE, MARTES, 22, CANELONES, SIN DATOS, 614535, 6152120 
25/8/2016, ALBERTO HEBER USHER, COLISIÓN CON OBSTÁCULO EN CALZADA, GRAVE, JUEVES, 9, FLORIDA, FLORIDA, 571805, 6227760 
31/12/2016, AV. FRURGONI Y LAVALLEJA, COLISIÓN ENTRE VEHÍCULOS, LEVE, SÁBADO, 12, DURAZNO, DURAZNO, 543715, 6306305 
23/3/2016, AGRACIADA, COLISIÓN ENTRE VEHÍCULOS, LEVE, MIÉRCOLES, 16, SORIANO, DOLORES, 387045, 6288895 
15/9/2016, FUSTER ESQ SUAREZ, COLISIÓN ENTRE VEHÍCULOS, GRAVE, JUEVES, 13, CANELONES, CANELONES, 565315, 6179310 
8/12/2016, BATLLE, COLISIÓN ENTRE VEHÍCULOS, SIN LESIONADOS, JUEVES, 19, CANELONES, SANTA LUCIA, 555600, 6188265 
6/4/2016, MANUEL D RODRIGUEZ, COLISIÓN ENTRE VEHÍCULOS, LEVE, MIÉRCOLES, 7, SAN JOSE, SAN JOSE DE MAYO, 526065, 6200870 
14/9/2016,  SIN NOMBRE, COLISIÓN ENTRE VEHÍCULOS, GRAVE, MIÉRCOLES, 12, COLONIA, COLONIA DEL SACRAMENTO, 422865, 6187185 
13/9/2016, ITUZAINGO, COLISIÓN ENTRE VEHÍCULOS, GRAVE, MARTES, 8, COLONIA, ROSARIO, 467745, 6203275 
24/5/2016, NO SE INGRESO, COLISIÓN ENTRE VEHÍCULOS, LEVE, MARTES, 22, CANELONES, EL PINAR, 600840, 6149855 
20/7/2016, JOSE PEDRO VARELA, COLISIÓN ENTRE VEHÍCULOS, LEVE, MIÉRCOLES, 15, COLONIA, COLONIA DEL SACRAMENTO, 423005, 6185695 
31/5/2016, MANUEL ORIBE, COLISIÓN ENTRE VEHÍCULOS, LEVE, MARTES, 23, SORIANO, MERCEDES, 404615, 6319210 
26/10/2016,  AVENIDA F, ATROPELLO DE ANIMALES, LEVE, MIÉRCOLES, 13, CANELONES, SOLYMAR, 593305, 6146450 
15/6/2016, ANTONIO M. FERNANDEZ, COLISIÓN ENTRE VEHÍCULOS, LEVE, MIÉRCOLES, 19, FLORIDA, FLORIDA, 572010, 6227170 
23/6/2016, AVENIDA INGENIERO LUIS GIANNATTASIO, COLISIÓN ENTRE VEHÍCULOS, LEVE, JUEVES, 7, CANELONES, EL PINAR, 600195, 6147825 
8/3/2016, CAMINO EL GALLO, CAÍDA, LEVE, MARTES, 18, CANELONES, BARROS BLANCOS, 593330, 6154830 
6/12/2016, HARRISON, COLISIÓN ENTRE VEHÍCULOS, SIN LESIONADOS, MARTES, 18, FLORIDA, SARANDI GRANDE, 562060, 6268450 
5/10/2016, NO SE INGRESO, DESPISTE, LEVE, MIÉRCOLES, 8, CANELONES, ATLANTIDA, 612920, 6153050 
16/3/2016, AVENIDA GENERAL FLORES, COLISIÓN ENTRE VEHÍCULOS, LEVE, MIÉRCOLES, 17, CANELONES, SIN DATOS, 571275, 6156830 
14/6/2016, ANTONIO ORLANDO GIORDANO, COLISIÓN ENTRE VEHÍCULOS, LEVE, MARTES, 18, DURAZNO, DURAZNO, 545645, 6305225 
16/3/2016, NO SE INGRESO, COLISIÓN ENTRE VEHÍCULOS, SIN LESIONADOS, MIÉRCOLES, 17, CANELONES, SIN DATOS, 563715, 6162055 
7/6/2016, ROMULO CARLOS ESQUINA JUAN DIAZ DE SOLIS , COLISIÓN ENTRE VEHÍCULOS, LEVE, MARTES, 15, CANELONES, JOAQUIN SUAREZ, 588225, 6155915 
15/3/2016, LOS AROMOS Y VENTURA, COLISIÓN ENTRE VEHÍCULOS, LEVE, MARTES, 17, CANELONES, SIN DATOS, 590550, 6150390 
4/5/2016, DOCTOR JULIAN BENGOA, ATROPELLO DE ANIMALES, LEVE, MIÉRCOLES, 19, SAN JOSE, SAN JOSE DE MAYO, 526340, 6200350 
19/7/2016, NO SE INGRESO, COLISIÓN ENTRE VEHÍCULOS, GRAVE, MARTES, 22, CANELONES, VILLA CRESPO Y SAN ANDRES, 583365, 6156400 
9/2/2016, RAMBLA Y CALLE 22, COLISIÓN ENTRE VEHÍCULOS, GRAVE, MARTES, 0, CANELONES, ATLANTIDA, 613130, 6151215 
6/12/2016, , DESPISTE, LEVE, MARTES, 22, SORIANO, SIN DATOS, 427625, 6302990 
5/3/2016, CALCAGNO, COLISIÓN ENTRE VEHÍCULOS, SIN LESIONADOS, SÁBADO, 17, CANELONES, SAN JOSE DE CARRASCO, 592270, 6144130 
6/7/2016, MANUEL SANCHEZ ECHEVERRIA, COLISIÓN ENTRE VEHÍCULOS, LEVE, MIÉRCOLES, 19, FLORES, TRINIDAD, 509495, 6290690 
12/7/2016, DOCTOR MORQUIO, COLISIÓN ENTRE VEHÍCULOS, LEVE, MARTES, 12, DURAZNO, DURAZNO, 544980, 6305845 
2/3/2016, DOCTOR BALTASAR BRUM, COLISIÓN ENTRE VEHÍCULOS, GRAVE, MIÉRCOLES, 0, CANELONES, SIN DATOS, 570885, 6156620 
31/5/2016, NO SE INGRESO, ATROPELLO DE PEATÓN, LEVE, MARTES, 13, CANELONES, SIN DATOS, 575775, 6163155 
16/2/2016, RODRIGUEZ, COLISIÓN ENTRE VEHÍCULOS, GRAVE, MARTES, 22, CANELONES, SIN DATOS, 570785, 6156500 
30/11/2016, NO SE INGRESO, DESPISTE, LEVE, MIÉRCOLES, 9, CANELONES, SIN DATOS, 567660, 6171370 
8/11/2016, , CAÍDA, LEVE, MARTES, 9, CANELONES, PASO CARRASCO, 587175, 6142445 
22/6/2016, RIVERA, COLISIÓN ENTRE VEHÍCULOS, LEVE, MIÉRCOLES, 9, CANELONES, SANTA LUCIA, 556145, 6187150 
9/3/2016, , COLISIÓN ENTRE VEHÍCULOS, LEVE, MIÉRCOLES, 15, CANELONES, VILLA CRESPO Y SAN ANDRES, 582225, 6154555 
10/5/2016, MARIA STAGNERO DE MUNAR, COLISIÓN ENTRE VEHÍCULOS, SIN LESIONADOS, MARTES, 15, CANELONES, CANELONES, 566390, 6179795 
21/12/2016, NO SE INGRESO, ATROPELLO DE ANIMALES, LEVE, MIÉRCOLES, 22, FLORIDA, SIN DATOS, 601580, 6231260 
3/11/2016, MARTIN ETCHEGOYEN, CAÍDA, LEVE, JUEVES, 16, DURAZNO, DURAZNO, 544620, 6306035 
5/5/2016, ARGENTINA, ATROPELLO DE ANIMALES, LEVE, JUEVES, 13, CANELONES, SIN DATOS, 572355, 6157410 
8/9/2016, LOS AROMOS Y CALLE 34, COLISIÓN ENTRE VEHÍCULOS, LEVE, JUEVES, 20, CANELONES, SOLYMAR, 592520, 6146210 
4/2/2016, DIAGONAL 2 Y CALLE 11, CAÍDA, LEVE, JUEVES, 13, CANELONES, MONTES, 632640, 6182180 
26/4/2016, GENERAL ARTIGAS, COLISIÓN ENTRE VEHÍCULOS, LEVE, MARTES, 7, CANELONES, PROGRESO, 570405, 6164755 
10/5/2016,  RUTA NACIONAL OCHO, COLISIÓN ENTRE VEHÍCULOS, LEVE, MARTES, 19, CANELONES, BARROS BLANCOS, 590155, 6152955 
8/3/2016, CALLE 7 Y CALLE E , COLISIÓN ENTRE VEHÍCULOS, GRAVE, MARTES, 18, CANELONES, SIN DATOS, 615680, 6152415 
6/1/2016,  GUSTAVO GALLINAL, COLISIÓN ENTRE VEHÍCULOS, LEVE, MIÉRCOLES, 12, DURAZNO, DURAZNO, 544305, 6305400 
11/10/2016, NO SE INGRESO, ATROPELLO DE ANIMALES, LEVE, MARTES, 18, CANELONES, SIN DATOS, 596585, 6149040 
24/5/2016, DOCTOR ANTONIO LEGNANI, COLISIÓN ENTRE VEHÍCULOS, SIN LESIONADOS, MARTES, 18, CANELONES, SANTA LUCIA, 556220, 6187225 
16/3/2016, RAMBLA REPUBLICA DEL PERU, COLISIÓN ENTRE VEHÍCULOS, LEVE, MIÉRCOLES, 11, CANELONES, LOMAS DE SOLYMAR, 596095, 6146215 
4/5/2016, NO SE INGRESO, COLISIÓN ENTRE VEHÍCULOS, SIN LESIONADOS, MIÉRCOLES, 19, FLORIDA, SIN DATOS, 561200, 6275670 
13/12/2016, BERRO, COLISIÓN ENTRE VEHÍCULOS, LEVE, MARTES, 13, FLORES, TRINIDAD, 508535, 6291250 
23/6/2016, LOS EUCALIPTUS, CAÍDA, LEVE, JUEVES, 6, SAN JOSE, MONTE GRANDE, 553585, 6155225 
18/10/2016, JOAQUIN SUAREZ, COLISIÓN ENTRE VEHÍCULOS, LEVE, MARTES, 15, FLORIDA, FLORIDA, 572155, 6227025 
28/9/2016, GENERAL JOSE G. ARTIGAS, COLISIÓN ENTRE VEHÍCULOS, LEVE, MIÉRCOLES, 9, SORIANO, MERCEDES, 404360, 6319375 
6/4/2016, NO SE INGRESO, DESPISTE, SIN LESIONADOS, MIÉRCOLES, 22, SORIANO, SIN DATOS, 457675, 6249175 
29/3/2016,  AVENIDA URUGUAY --SOLYMAR--, COLISIÓN ENTRE VEHÍCULOS, GRAVE, MARTES, 16, CANELONES, SOLYMAR, 594305, 6145645 
12/10/2016, BERRO, COLISIÓN ENTRE VEHÍCULOS, GRAVE, MIÉRCOLES, 14, FLORES, TRINIDAD, 508440, 6291250 
5/4/2016, NO SE INGRESO, CAÍDA, GRAVE, MARTES, 14, SAN JOSE, SIN DATOS, 526455, 6173085 
16/11/2016, LEANDRO GOMEZ, COLISIÓN ENTRE VEHÍCULOS, GRAVE, MIÉRCOLES, 14, DURAZNO, DURAZNO, 544380, 6307095 
21/12/2016, NO SE INGRESO, DESPISTE, LEVE, MIÉRCOLES, 14, FLORES, SIN DATOS, 511350, 6287485 
26/1/2016, RUTA 8 KM 39.000, DESPISTE, GRAVE, MARTES, 18, CANELONES, SIN DATOS, 600275, 6159975 
27/1/2016, CAMINO DE LAS COLMENAS, CAÍDA, LEVE, MIÉRCOLES, 21, CANELONES, SIN DATOS, 581150, 6155820 
29/3/2016, VIVIAN TRIAS, COLISIÓN ENTRE VEHÍCULOS, SIN LESIONADOS, MARTES, 13, CANELONES, SIN DATOS, 571080, 6157765 
6/9/2016, NO SE INGRESO, DESPISTE, LEVE, MARTES, 2, COLONIA, SIN DATOS, 429620, 6188750 
27/7/2016, AGRACIADA, COLISIÓN ENTRE VEHÍCULOS, GRAVE, MIÉRCOLES, 17, CANELONES, SIN DATOS, 571710, 6159485 
9/3/2016, COPACABANA Y JAGUEL, COLISIÓN ENTRE VEHÍCULOS, LEVE, MIÉRCOLES, 20, CANELONES, LOMAS DE SOLYMAR, 598335, 6147320 
2/3/2016, NO SE INGRESO, COLISIÓN ENTRE VEHÍCULOS, SIN LESIONADOS, MIÉRCOLES, 0, CANELONES, SIN DATOS, 595650, 6194910 
27/7/2016, NO SE INGRESO, DESPISTE, SIN LESIONADOS, MIÉRCOLES, 21, SAN JOSE, SIN DATOS, 526760, 6236220 
16/2/2016, MARIO FERREIRA Y AVENIDA CENTRAL, COLISIÓN ENTRE VEHÍCULOS, LEVE, MARTES, 17, CANELONES, SIN DATOS, 615605, 6151475 
23/8/2016, ESTADOS UNIDOS, COLISIÓN ENTRE VEHÍCULOS, LEVE, MARTES, 22, CANELONES, PARQUE CARRASCO, 591390, 6142730 
3/8/2016, FRANCISCO MENESES Y LAURNAGA, COLISIÓN ENTRE VEHÍCULOS, LEVE, MIÉRCOLES, 19, CANELONES, PANDO, 594930, 6157970 
28/5/2016, , COLISIÓN ENTRE VEHÍCULOS, LEVE, SÁBADO, 13, FLORIDA, CARDAL, 555890, 6205095 
2/3/2016, CAMINO ANDALUZ KM 1200, COLISIÓN ENTRE VEHÍCULOS, LEVE, MIÉRCOLES, 12, CANELONES, SIN DATOS, 584010, 6152070 
21/7/2016, BERNA, COLISIÓN ENTRE VEHÍCULOS, SIN LESIONADOS, JUEVES, 16, COLONIA, NUEVA HELVECIA, 478310, 6206055 
13/10/2016, AVENIDA GENERAL JOSE GERVASIO ARTIGAS, CAÍDA, LEVE, JUEVES, 16, DURAZNO, CARMEN, 593205, 6322495 
13/10/2016,  BUENOS AIRES, COLISIÓN ENTRE VEHÍCULOS, LEVE, JUEVES, 10, CANELONES, LAGOMAR, 592370, 6144340 
17/5/2016, VEINTE DE SETIEMBRE, CAÍDA, SIN LESIONADOS, MARTES, 11, FLORIDA, SARANDI GRANDE, 561690, 6267735 
12/10/2016, NO SE INGRESO, DESPISTE, SIN LESIONADOS, MIÉRCOLES, 15, SORIANO, SIN DATOS, 389770, 6282805 
7/7/2016, GENERAL JOSE G. ARTIGAS, COLISIÓN ENTRE VEHÍCULOS, LEVE, JUEVES, 17, COLONIA, COLONIA DEL SACRAMENTO, 422595, 6185675 
9/8/2016, NO SE INGRESO, COLISIÓN ENTRE VEHÍCULOS, LEVE, MARTES, 22, CANELONES, COLONIA NICOLICH, 588875, 6146925 
20/9/2016, , CAÍDA, LEVE, MARTES, 3, CANELONES, SIN DATOS, 568170, 6154380 
15/3/2016, GENERAL FRUCTUOSO RIVERA, CAÍDA, LEVE, MARTES, 20, FLORIDA, FLORIDA, 572715, 6227155 
25/5/2016, NO SE INGRESO, COLISIÓN ENTRE VEHÍCULOS, LEVE, MIÉRCOLES, 15, CANELONES, PINAMAR - PINEPARK, 604285, 6150965 
19/7/2016, DOCTOR LUIS ALBERTO DE HERRERA, COLISIÓN ENTRE VEHÍCULOS, LEVE, MARTES, 14, FLORIDA, FLORIDA, 572080, 6226225 
22/6/2016, MANUEL DE RODRIGUEZ, COLISIÓN ENTRE VEHÍCULOS, GRAVE, MIÉRCOLES, 16, SAN JOSE, SAN JOSE DE MAYO, 525790, 6200770 
11/10/2016, NO SE INGRESO, COLISIÓN ENTRE VEHÍCULOS, LEVE, MARTES, 17, CANELONES, SIN DATOS, 619110, 6163070 
26/10/2016, ESQUINA VENTURA Y REPUBLICA, COLISIÓN ENTRE VEHÍCULOS, LEVE, MIÉRCOLES, 17, CANELONES, BARROS BLANCOS, 591450, 6153770 
15/11/2016, INTERSECCION RUTA 55, DESPISTE, SIN LESIONADOS, MARTES, 8, COLONIA, SIN DATOS, 427010, 6247760 
29/12/2016,  MAKALU, ATROPELLO DE PEATÓN, LEVE, JUEVES, 19, CANELONES, COLINAS DE SOLYMAR, 595745, 6148905 
30/11/2016, CAMINO DEL ESTE ESQ. APARICIO SARAVIA, ATROPELLO DE PEATÓN, LEVE, MIÉRCOLES, 11, CANELONES, JOAQUIN SUAREZ, 588590, 6155855 
8/3/2016, NO SE INGRESO, COLISIÓN ENTRE VEHÍCULOS, LEVE, MARTES, 11, CANELONES, SIN DATOS, 567385, 6174385 
8/3/2016, NO SE INGRESO, CAÍDA, LEVE, MARTES, 17, FLORIDA, SIN DATOS, 570300, 6242130 
18/10/2016, CAMINO LA MACANA KM 2, CAÍDA, LEVE, MARTES, 9, FLORIDA, SIN DATOS, 573010, 6229685 
29/3/2016, CESAR MAYO GUTIERREZ, COLISIÓN ENTRE VEHÍCULOS, LEVE, MARTES, 12, CANELONES, SIN DATOS, 570680, 6153865 
13/7/2016, FRUCTUOSO RIVERA, COLISIÓN ENTRE VEHÍCULOS, LEVE, MIÉRCOLES, 12, DURAZNO, DURAZNO, 543780, 6306845 
21/12/2016, E. MARTINEZ MONEGAL, CAÍDA, LEVE, MIÉRCOLES, 0, CANELONES, CANELONES, 566450, 6179200 
1/11/2016,  AVENIDA SECCO GARCIA, COLISIÓN ENTRE VEHÍCULOS, LEVE, MARTES, 15, CANELONES, SOLYMAR, 593545, 6145105 
22/8/2016, BIANCHI ALTUNA, COLISIÓN ENTRE VEHÍCULOS, LEVE, LUNES, 20, CANELONES, SIN DATOS, 570575, 6153505 
17/5/2016, AVENIDA DE LAS AMERICAS, COLISIÓN ENTRE VEHÍCULOS, SIN LESIONADOS, MARTES, 8, CANELONES, PASO CARRASCO, 589220, 6143650 
6/7/2016, FRANCISCO FONDAR, COLISIÓN ENTRE VEHÍCULOS, GRAVE, MIÉRCOLES, 14, FLORES, TRINIDAD, 509535, 6291495 
10/2/2016, , COLISIÓN ENTRE VEHÍCULOS, LEVE, MIÉRCOLES, 22, CANELONES, EL PINAR, 597895, 6148765 
16/3/2016, NO SE INGRESO, COLISIÓN ENTRE VEHÍCULOS, SIN LESIONADOS, MIÉRCOLES, 9, SORIANO, SIN DATOS, 376165, 6265150 
12/7/2016, FLORENCIO SANCHEZ, CAÍDA, LEVE, MARTES, 17, FLORES, TRINIDAD, 509000, 6290715 
6/9/2016, DOCTOR O. GONZALEZ, COLISIÓN ENTRE VEHÍCULOS, GRAVE, MARTES, 18, FLORIDA, FLORIDA, 572080, 6227240 
31/8/2016, NO SE INGRESO, ATROPELLO DE ANIMALES, LEVE, MIÉRCOLES, 22, CANELONES, SIN DATOS, 571550, 6176820 
16/8/2016, ASENCIO, COLISIÓN ENTRE VEHÍCULOS, LEVE, MARTES, 9, SORIANO, DOLORES, 387180, 6288850 
8/6/2016, JARDINES DE CAMPISTEGUI, COLISIÓN CON OBSTÁCULO EN CALZADA, SIN LESIONADOS, MIÉRCOLES, 5, CANELONES, SIN DATOS, 572280, 6158515 
24/8/2016, CONTINUACION TREI, COLISIÓN ENTRE VEHÍCULOS, LEVE, MIÉRCOLES, 20, SAN JOSE, SAN JOSE DE MAYO, 526535, 6199235 
23/2/2016, NO SE INGRESO, COLISIÓN ENTRE VEHÍCULOS, GRAVE, MARTES, 18, CANELONES, SIN DATOS, 594515, 6160900 
28/1/2016, DIECIOCHO DE JULIO, COLISIÓN ENTRE VEHÍCULOS, SIN LESIONADOS, JUEVES, 20, FLORIDA, FLORIDA, 572505, 6226235 
27/12/2016, JOSE PEDRO VARELA, COLISIÓN ENTRE VEHÍCULOS, LEVE, MARTES, 17, CANELONES, SIN DATOS, 572090, 6156855 
22/3/2016, DOCTOR PELUFFO, COLISIÓN ENTRE VEHÍCULOS, LEVE, MARTES, 17, CANELONES, PANDO, 595360, 6158725 
13/4/2016, RODRIGUEZ, COLISIÓN ENTRE VEHÍCULOS, SIN LESIONADOS, MIÉRCOLES, 14, CANELONES, SIN DATOS, 570990, 6156505 
16/11/2016, DOCTOR MANUEL QUINTELA, ATROPELLO DE ANIMALES, LEVE, MIÉRCOLES, 23, CANELONES, PANDO, 595450, 6159040 
16/8/2016, NO SE INGRESO, COLISIÓN ENTRE VEHÍCULOS, SIN LESIONADOS, MARTES, 12, CANELONES, SIN DATOS, 587595, 6181245 
28/6/2016, CLEMENTE FREGEIRO, COLISIÓN CON OBSTÁCULO EN CALZADA, LEVE, MARTES, 18, SORIANO, MERCEDES, 403780, 6319585 
6/9/2016, DOCTOR LLAMBIAS DE OLIVAR, ATROPELLO DE PEATÓN, SIN LESIONADOS, MARTES, 19, CANELONES, SANTA ROSA, 587550, 6181770 
8/3/2016, , COLISIÓN ENTRE VEHÍCULOS, SIN LESIONADOS, MARTES, 0, SORIANO, CARDONA, 465190, 6251915 
25/2/2016, INDEPENDENCIA, COLISIÓN ENTRE VEHÍCULOS, LEVE, JUEVES, 17, FLORIDA, FLORIDA, 571800, 6227245 
6/9/2016,  FERNANDO ARTIGAS, DESPISTE, SIN LESIONADOS, MARTES, 20, CANELONES, VILLA CRESPO Y SAN ANDRES, 582165, 6155225 
23/11/2016, NO SE INGRESO, COLISIÓN ENTRE VEHÍCULOS, SIN LESIONADOS, MIÉRCOLES, 8, CANELONES, SIN DATOS, 592860, 6146505 
16/11/2016, NO SE INGRESO, DESPISTE, LEVE, MIÉRCOLES, 17, FLORES, SIN DATOS, 501145, 6282130 
16/8/2016, DIECIOCHO DE JULIO, COLISIÓN ENTRE VEHÍCULOS, SIN LESIONADOS, MARTES, 9, FLORIDA, FLORIDA, 572370, 6226090 
4/10/2016, PARALELA AL SUR, COLISIÓN ENTRE VEHÍCULOS, LEVE, MARTES, 7, CANELONES, EL PINAR, 598815, 6148505 
28/6/2016,  JULIO A. GODAY ECHENIQUE, DESPISTE, LEVE, MARTES, 0, FLORIDA, SIN DATOS, 674225, 6335475 
22/3/2016, AVENIDA URUGUAY --SOLYMAR--, CAÍDA, LEVE, MARTES, 3, CANELONES, SOLYMAR, 594325, 6145615 
16/11/2016, NO SE INGRESO, COLISIÓN ENTRE VEHÍCULOS, LEVE, MIÉRCOLES, 12, CANELONES, SIN DATOS, 615135, 6152690 
11/10/2016, BALTASAR BRUM, COLISIÓN ENTRE VEHÍCULOS, SIN LESIONADOS, MARTES, 21, COLONIA, ROSARIO, 467760, 6202160 
11/8/2016, CORONEL LORENZO LATORRE, COLISIÓN ENTRE VEHÍCULOS, LEVE, JUEVES, 12, COLONIA, COLONIA DEL SACRAMENTO, 422465, 6187785 
8/3/2016, NO SE INGRESO, COLISIÓN ENTRE VEHÍCULOS, LEVE, MARTES, 1, CANELONES, PINAMAR - PINEPARK, 605280, 6151125 
27/9/2016, GENERAL ARTIGAS, COLISIÓN ENTRE VEHÍCULOS, SIN LESIONADOS, MARTES, 14, CANELONES, PROGRESO, 571700, 6160925 
3/5/2016, LOS CEIBOS Y RUTA 8, COLISIÓN ENTRE VEHÍCULOS, LEVE, MARTES, 20, CANELONES, BARROS BLANCOS, 590855, 6153500 
7/9/2016, AVENIDA GENERAL JOSE GERVASIO ARTIGAS, COLISIÓN ENTRE VEHÍCULOS, LEVE, MIÉRCOLES, 19, CANELONES, SIN DATOS, 571375, 6156935 
9/2/2016, NO SE INGRESO, CAÍDA, GRAVE, MARTES, 21, CANELONES, PASO CARRASCO, 589210, 6143645 
30/6/2016, DOCTOR LUIS ALBERTO DE HERRERA, ATROPELLO DE PEATÓN, SIN LESIONADOS, JUEVES, 17, FLORIDA, FLORIDA, 572430, 6226590 
2/6/2016, RAMBLA COSTANERA BAJADA 21 ESQ CALLE ACHIRAS, COLISIÓN ENTRE VEHÍCULOS, LEVE, JUEVES, 8, CANELONES, SOLYMAR, 595510, 6144745 
6/12/2016, RUTA INTERBALNEARIA km. 77.500, COLISIÓN ENTRE VEHÍCULOS, FATAL, MARTES, 18, CANELONES, JAUREGUIBERRY, 643575, 6150290 
28/3/2016, DOCTOR PANTALEON ASTIAZARAN, ATROPELLO DE PEATÓN, LEVE, LUNES, 13, DURAZNO, SARANDI DEL YI, 627440, 6309715 
12/10/2016, ALEJANDRO GALLINAL, COLISIÓN ENTRE VEHÍCULOS, LEVE, MIÉRCOLES, 18, FLORIDA, FLORIDA, 571765, 6227065 
4/10/2016, AVENIDA AEROSUR, COLISIÓN ENTRE VEHÍCULOS, LEVE, MARTES, 19, CANELONES, SAN JOSE DE CARRASCO, 591740, 6144275 
8/11/2016, PIEDRAS, COLISIÓN ENTRE VEHÍCULOS, GRAVE, MARTES, 15, CANELONES, PANDO, 594910, 6157390 
2/3/2016, ROSSI COSTA, COLISIÓN ENTRE VEHÍCULOS, SIN LESIONADOS, MIÉRCOLES, 20, CANELONES, JOAQUIN SUAREZ, 587205, 6155605 
6/9/2016, ANTONIO ORLANDO GIORDANO, COLISIÓN ENTRE VEHÍCULOS, LEVE, MARTES, 11, DURAZNO, DURAZNO, 545530, 6305415 
20/9/2016, GENERAL JOSE G. ARTIGAS, COLISIÓN ENTRE VEHÍCULOS, LEVE, MARTES, 11, CANELONES, SANTA LUCIA, 556180, 6187190 
12/7/2016, NO SE INGRESO, COLISIÓN ENTRE VEHÍCULOS, LEVE, MARTES, 10, CANELONES, SIN DATOS, 600640, 6159545 
1/11/2016, GENERAL JUAN ANTONIO LAVALLEJA, COLISIÓN CON OBSTÁCULO EN CALZADA, SIN LESIONADOS, MARTES, 15, COLONIA, COLONIA DEL SACRAMENTO, 422280, 6185305 
30/3/2016, PIEDRAS, COLISIÓN ENTRE VEHÍCULOS, SIN LESIONADOS, MIÉRCOLES, 0, CANELONES, PANDO, 595040, 6157000 
8/3/2016, VEINTICINCO DE MAYO, CAÍDA, LEVE, MARTES, 20, SORIANO, MERCEDES, 404040, 6319320 
10/2/2016, NO SE INGRESO, ATROPELLO DE PEATÓN, GRAVE, MIÉRCOLES, 18, CANELONES, SIN DATOS, 610715, 6152240 
19/5/2016, JUAN FRANCISCO LARROBLA, COLISIÓN ENTRE VEHÍCULOS, LEVE, JUEVES, 14, FLORIDA, FLORIDA, 572575, 6226025 
21/12/2016, NO SE INGRESO, COLISIÓN ENTRE VEHÍCULOS, LEVE, MIÉRCOLES, 8, CANELONES, PASO PALOMEQUE, 567545, 6179915 
27/12/2016,  SOL, COLISIÓN ENTRE VEHÍCULOS, LEVE, MARTES, 22, CANELONES, PASO CARRASCO, 587180, 6142395 
27/12/2016, NO SE INGRESO, COLISIÓN ENTRE VEHÍCULOS, LEVE, MARTES, 15, CANELONES, CANELONES, 566665, 6177820 
19/1/2016, MARIA STAGNERO DE MUNAR, COLISIÓN ENTRE VEHÍCULOS, LEVE, MARTES, 21, CANELONES, CANELONES, 566510, 6179785 
13/9/2016, NO SE INGRESO, CAÍDA, LEVE, MARTES, 14, CANELONES, SIN DATOS, 620300, 6156235 
7/12/2016, CONTINUACION BELLA VISTA, COLISIÓN ENTRE VEHÍCULOS, GRAVE, MIÉRCOLES, 18, CANELONES, SAN RAMON, 596890, 6204150 
8/3/2016, RUTA 8 KM 27.500, COLISIÓN CON OBSTÁCULO EN CALZADA, LEVE, MARTES, 1, CANELONES, BARROS BLANCOS, 592315, 6154535 
13/9/2016, NO SE INGRESO, COLISIÓN ENTRE VEHÍCULOS, SIN LESIONADOS, MARTES, 18, CANELONES, COLONIA NICOLICH, 589840, 6146720 
19/10/2016, CONT JOSE MARTI PARQUE ARTIGAS , DESPISTE, SIN LESIONADOS, MIÉRCOLES, 11, CANELONES, CANELONES, 566610, 6179095 
16/3/2016, FILADELFIA, COLISIÓN ENTRE VEHÍCULOS, LEVE, MIÉRCOLES, 18, CANELONES, SAN JOSE DE CARRASCO, 592700, 6143775 
21/9/2016, MARTIN SALABERRY, ATROPELLO DE ANIMALES, LEVE, MIÉRCOLES, 12, DURAZNO, DURAZNO, 543270, 6306335 
13/9/2016, NO SE INGRESO, DESPISTE, SIN LESIONADOS, MARTES, 20, CANELONES, ESTACION ATLANTIDA, 613030, 6154900 
16/3/2016, RUTA CINCO VIEJA, COLISIÓN ENTRE VEHÍCULOS, LEVE, MIÉRCOLES, 17, CANELONES, PROGRESO, 571750, 6163445 
13/1/2016, EMILIO ANDREON, COLISIÓN ENTRE VEHÍCULOS, LEVE, MIÉRCOLES, 18, CANELONES, SIN DATOS, 570760, 6153400 
6/7/2016, JUAN J. CARDOZO, COLISIÓN ENTRE VEHÍCULOS, LEVE, MIÉRCOLES, 20, FLORIDA, FLORIDA, 571865, 6226455 
8/6/2016, MIGUEL BARREIRO, COLISIÓN ENTRE VEHÍCULOS, LEVE, MIÉRCOLES, 18, SAN JOSE, SAN JOSE DE MAYO, 525660, 6198970 
29/12/2016, VEINTICINCO DE AGOSTO, COLISIÓN ENTRE VEHÍCULOS, LEVE, JUEVES, 2, COLONIA, JUAN LACAZE, 459530, 6189225 
22/12/2016, CARQUEIR, COLISIÓN ENTRE VEHÍCULOS, SIN LESIONADOS, JUEVES, 9, FLORIDA, CARDAL, 555795, 6205340 
10/11/2016, TORRES GARCIA, CAÍDA, LEVE, JUEVES, 15, CANELONES, SIN DATOS, 571985, 6156850 
18/8/2016, RUTA 23 km. 201.000, COLISIÓN ENTRE VEHÍCULOS, FATAL, JUEVES, 19, FLORES, SIN DATOS, 510130, 6284520 
17/3/2016, NO SE INGRESO, ATROPELLO DE PEATÓN, GRAVE, JUEVES, 13, CANELONES, SALINAS, 606825, 6151455 
16/2/2016, GENERAL JUAN ANTONIO LAVALLEJA, CAÍDA, LEVE, MARTES, 20, SAN JOSE, SAN JOSE DE MAYO, 527255, 6200890 
21/6/2016, LUIS ALBERTO DE HERRERA, CAÍDA, GRAVE, MARTES, 8, CANELONES, SIN DATOS, 571980, 6157160 
12/7/2016, NO SE INGRESO, COLISIÓN ENTRE VEHÍCULOS, LEVE, MARTES, 14, CANELONES, SIN DATOS, 569485, 6157525 
2/2/2016, RUTA 57 KM 55, DESPISTE, SIN LESIONADOS, MARTES, 0, FLORES, SIN DATOS, 507035, 6288250 
1/12/2016, DIECIOCHO DE JULIO, COLISIÓN ENTRE VEHÍCULOS, SIN LESIONADOS, JUEVES, 22, CANELONES, PANDO, 595160, 6157250 
15/12/2016, CAMINO MORLAN esq. RUTA 2, COLISIÓN ENTRE VEHÍCULOS, FATAL, JUEVES, 12, COLONIA, SIN DATOS, 468140, 6213360 
19/5/2016, GENERAL JOSE G. ARTIGAS, CAÍDA, LEVE, JUEVES, 14, COLONIA, CARMELO, 381195, 6238245 
21/4/2016, GENERAL JUAN ANTONIO LAVALLEJA, CAÍDA, LEVE, JUEVES, 1, DURAZNO, DURAZNO, 544440, 6307640 
23/8/2016, AURORA Y AVENIDA FERNANDEZ CRESPO , COLISIÓN ENTRE VEHÍCULOS, SIN LESIONADOS, MARTES, 12, COLONIA, JUAN LACAZE, 459720, 6189960 
5/7/2016, RAMBLA COSTANERA, COLISIÓN ENTRE VEHÍCULOS, LEVE, MARTES, 18, CANELONES, LOMAS DE SOLYMAR, 596805, 6145545 
5/7/2016, NO SE INGRESO, CAÍDA, LEVE, MARTES, 23, SAN JOSE, DELTA DEL TIGRE Y VILLAS, 555730, 6152465 
3/5/2016, INDEPENDENCIA, CAÍDA, SIN LESIONADOS, MARTES, 23, FLORIDA, 25 DE MAYO, 560590, 6215520 
12/7/2016, NO SE INGRESO, DESPISTE, SIN LESIONADOS, MARTES, 16, SORIANO, SIN DATOS, 469995, 6254755 
2/11/2016, CIRCUNVALACION, CAÍDA, LEVE, MIÉRCOLES, 12, CANELONES, ATLANTIDA, 613845, 6151645 
27/9/2016, SARANDI, COLISIÓN ENTRE VEHÍCULOS, LEVE, MARTES, 21, FLORIDA, FLORIDA, 572155, 6227165 
20/10/2016, MANUEL ORIBE, COLISIÓN ENTRE VEHÍCULOS, SIN LESIONADOS, JUEVES, 12, SORIANO, MERCEDES, 404560, 6319505 
31/5/2016, LOS CIRUELOS, ATROPELLO DE PEATÓN, LEVE, MARTES, 14, CANELONES, PROGRESO, 571465, 6163110 
25/10/2016, GENERAL FLORES, COLISIÓN ENTRE VEHÍCULOS, GRAVE, MARTES, 13, FLORES, TRINIDAD, 510425, 6291550 
23/2/2016, JOAQUIN SUAREZ, COLISIÓN ENTRE VEHÍCULOS, LEVE, MARTES, 18, DURAZNO, DURAZNO, 544565, 6305260 
20/12/2016, NO SE INGRESO, COLISIÓN ENTRE VEHÍCULOS, LEVE, MARTES, 14, CANELONES, PARQUE DEL PLATA, 618265, 6153930 
26/1/2016, , CAÍDA, LEVE, MARTES, 3, FLORIDA, FLORIDA, 572270, 6228525 
11/10/2016, TISCORNIA, COLISIÓN ENTRE VEHÍCULOS, GRAVE, MARTES, 9, CANELONES, SIN DATOS, 570175, 6153430 
9/8/2016, ANDRES CHEVESTE, COLISIÓN ENTRE VEHÍCULOS, LEVE, MARTES, 18, SORIANO, DOLORES, 387230, 6288765 
20/12/2016, PARQUE ARTIGAS(JEFATUIRA OPERACIONAL V)), COLISIÓN CON OBSTÁCULO EN CALZADA, SIN LESIONADOS, MARTES, 18, CANELONES, CANELONES, 566545, 6179135 
17/8/2016, VEINTIOCHO DE FEBRERO, COLISIÓN ENTRE VEHÍCULOS, SIN LESIONADOS, MIÉRCOLES, 15, CANELONES, SIN DATOS, 570260, 6153780 
10/5/2016, DOCTOR ALFREDO SAN JUAN, COLISIÓN ENTRE VEHÍCULOS, GRAVE, MARTES, 0, FLORIDA, SARANDI GRANDE, 561935, 6268630 
16/8/2016, DOCTOR LUIS ALBERTO DE HERRERA, COLISIÓN ENTRE VEHÍCULOS, LEVE, MARTES, 11, CANELONES, SIN DATOS, 571150, 6153575 
12/7/2016, NO SE INGRESO, DESPISTE, GRAVE, MARTES, 18, SAN JOSE, SIN DATOS, 500620, 6193150 
27/12/2016, AEROPUERTO, CAÍDA, LEVE, MARTES, 0, CANELONES, COLONIA NICOLICH, 588140, 6147105 
14/1/2016, JOAQUIN SUAREZ, COLISIÓN ENTRE VEHÍCULOS, LEVE, JUEVES, 5, CANELONES, SANTA LUCIA, 556365, 6187685 
21/1/2016, ISIDORO RODRIGUEZ, COLISIÓN ENTRE VEHÍCULOS, LEVE, JUEVES, 22, COLONIA, CARMELO, 381805, 6237110 
5/7/2016, NO SE INGRESO, DESPISTE, SIN LESIONADOS, MARTES, 7, COLONIA, SIN DATOS, 411035, 6223780 
20/7/2016, CARLOS MARIA RAMIREZ, CAÍDA, LEVE, MIÉRCOLES, 21, FLORES, TRINIDAD, 509320, 6291105 
5/1/2016, DOCTOR JULIO ECHECHURI, CAÍDA, GRAVE, MARTES, 20, DURAZNO, DURAZNO, 546340, 6305315 
22/9/2016, GENERAL FRUCTUOSO RIVERA, DESPISTE, SIN LESIONADOS, JUEVES, 4, COLONIA, FLORENCIO SANCHEZ, 465820, 6251215 
14/7/2016, DIECIOCHO DE JULIO, COLISIÓN ENTRE VEHÍCULOS, SIN LESIONADOS, JUEVES, 16, COLONIA, COLONIA DEL SACRAMENTO, 422915, 6185270 
9/3/2016, RUTA 1 km. 35, COLISIÓN ENTRE VEHÍCULOS, FATAL, MIÉRCOLES, 11, SAN JOSE, SIN DATOS, 548480, 6157585 
3/3/2016, CALLE 5 Y 16, CAÍDA, LEVE, JUEVES, 12, CANELONES, ATLANTIDA, 613610, 6151585 
21/1/2016, AVENIDA DOCTOR LUIS ALBERTO DE HERRERA, DESPISTE, LEVE, JUEVES, 3, SAN JOSE, SAN JOSE DE MAYO, 527685, 6199930 
20/10/2016, AVENIDA CENTENARIO, COLISIÓN ENTRE VEHÍCULOS, SIN LESIONADOS, JUEVES, 19, CANELONES, SIN DATOS, 571315, 6153300 
1/12/2016, CORONEL LORENZO LATORRE, COLISIÓN ENTRE VEHÍCULOS, SIN LESIONADOS, JUEVES, 17, COLONIA, COLONIA DEL SACRAMENTO, 422370, 6187960 
27/9/2016, RAMBLA COSTANERA Y MIAMI, ATROPELLO DE ANIMALES, SIN LESIONADOS, MARTES, 19, CANELONES, EL PINAR, 599190, 6147075 
1/6/2016, NO SE INGRESO, COLISIÓN ENTRE VEHÍCULOS, SIN LESIONADOS, MIÉRCOLES, 13, CANELONES, SIN DATOS, 576475, 6180275 
27/12/2016, NO SE INGRESO, DESPISTE, LEVE, MARTES, 18, FLORIDA, SIN DATOS, 572350, 6208180 
13/12/2016, GENERAL JOSE G. ARTIGAS, COLISIÓN ENTRE VEHÍCULOS, SIN LESIONADOS, MARTES, 19, CANELONES, SAN JACINTO, 603730, 6176910 
5/1/2016, URUGUAY, COLISIÓN ENTRE VEHÍCULOS, LEVE, MARTES, 18, SAN JOSE, SAN JOSE DE MAYO, 527465, 6201855 
2/8/2016, , DESPISTE, LEVE, MARTES, 21, FLORIDA, SIN DATOS, 615645, 6213565 
13/4/2016, CAMINO DOCTOR LAUDELINO VAZQUEZ, COLISIÓN ENTRE VEHÍCULOS, SIN LESIONADOS, MIÉRCOLES, 15, CANELONES, FRACC. CNO. ANDALUZ Y R.84, 584700, 6153460 
27/7/2016, ANSINA, COLISIÓN ENTRE VEHÍCULOS, LEVE, MIÉRCOLES, 8, FLORES, TRINIDAD, 509185, 6290420 
20/12/2016, NO SE INGRESO, COLISIÓN ENTRE VEHÍCULOS, LEVE, MARTES, 17, CANELONES, SIN DATOS, 597795, 6158660 
5/4/2016, PILAR CABRERA, ATROPELLO DE PEATÓN, SIN LESIONADOS, MARTES, 17, CANELONES, SIN DATOS, 571490, 6156535 
14/6/2016, BARTOLOME HIDALGO, COLISIÓN ENTRE VEHÍCULOS, GRAVE, MARTES, 7, FLORIDA, FLORIDA, 571255, 6227520 
10/5/2016, COLONIA WILSON RUTA1 KM36, CAÍDA, LEVE, MARTES, 11, SAN JOSE, SIN DATOS, 544085, 6157695 
22/11/2016, RUTA 101 , COLISIÓN ENTRE VEHÍCULOS, LEVE, MARTES, 11, CANELONES, AEROPUERTO INTERNACIONAL DE CARRASCO, 590615, 6146160 
23/2/2016, NO SE INGRESO, DESPISTE, SIN LESIONADOS, MARTES, 12, CANELONES, SIN DATOS, 602555, 6159745 
24/5/2016, NO SE INGRESO, DESPISTE, LEVE, MARTES, 0, SAN JOSE, SIN DATOS, 523190, 6189065 
10/11/2016, RUTA INTERBALNEARIA km. 34.700, COLISIÓN ENTRE VEHÍCULOS, FATAL, JUEVES, 21, CANELONES, NEPTUNIA, 602030, 6150425 
17/3/2016, BLANDENGUES, COLISIÓN ENTRE VEHÍCULOS, LEVE, JUEVES, 23, CANELONES, SIN DATOS, 572680, 6157545 
30/6/2016, BATLLE Y ORDOÑEZ Y ARROYO TOMAS GONZALEZ, CAÍDA, LEVE, JUEVES, 10, FLORIDA, FLORIDA, 571365, 6227150 
2/2/2016, BARLOVENTO, CAÍDA, LEVE, MARTES, 21, CANELONES, LOMAS DE SOLYMAR, 596330, 6146535 
22/11/2016, NO SE INGRESO, CAÍDA, SIN LESIONADOS, MARTES, 13, COLONIA, SIN DATOS, 465255, 6199435 
31/5/2016, ANDRES CHEVESTE, COLISIÓN ENTRE VEHÍCULOS, LEVE, MARTES, 14, SORIANO, DOLORES, 387590, 6289005 
16/2/2016, , COLISIÓN ENTRE VEHÍCULOS, SIN LESIONADOS, MARTES, 18, CANELONES, PASO CARRASCO, 589225, 6143635 
22/9/2016, RUTA INTERBALNEARIA ESQ. LOS HORNEROS, COLISIÓN ENTRE VEHÍCULOS, SIN LESIONADOS, JUEVES, 7, CANELONES, SOLYMAR, 593520, 6146810 
7/7/2016, DE LOS HORNEROS, CAÍDA, LEVE, JUEVES, 14, CANELONES, LOMAS DE SOLYMAR, 596115, 6146890 
8/9/2016, JULIO SOSA, COLISIÓN ENTRE VEHÍCULOS, LEVE, JUEVES, 9, CANELONES, SIN DATOS, 571735, 6155925 
23/6/2016, NO SE INGRESO, DESPISTE, LEVE, JUEVES, 10, CANELONES, SIN DATOS, 565440, 6190165 
1/9/2016, CERRILLOS, COLISIÓN ENTRE VEHÍCULOS, LEVE, JUEVES, 18, CANELONES, SIN DATOS, 573115, 6157500 
3/2/2016, NO SE INGRESO, DESPISTE, LEVE, MIÉRCOLES, 14, SAN JOSE, SIN DATOS, 497065, 6195820 
6/9/2016, , COLISIÓN ENTRE VEHÍCULOS, GRAVE, MARTES, 12, CANELONES, CANELONES, 566095, 6179705 
2/8/2016, RUTA 63 KM 1, DESPISTE, SIN LESIONADOS, MARTES, 14, CANELONES, SIN DATOS, 594025, 6204740 
2/6/2016, TREINTA Y TRES, COLISIÓN ENTRE VEHÍCULOS, SIN LESIONADOS, JUEVES, 18, COLONIA, NUEVA HELVECIA, 478865, 6206025 
15/3/2016, URUGUAY, CAÍDA, LEVE, MARTES, 1, FLORES, TRINIDAD, 508910, 6291020 
16/3/2016, NO SE INGRESO, DESPISTE, SIN LESIONADOS, MIÉRCOLES, 23, CANELONES, SIN DATOS, 586575, 6155190 
30/3/2016, WASHINGTON, CAÍDA, LEVE, MIÉRCOLES, 18, DURAZNO, DURAZNO, 544620, 6305810 
13/1/2016, ROSALIA DE CASTRO --PASO CARRASCO--, COLISIÓN ENTRE VEHÍCULOS, SIN LESIONADOS, MIÉRCOLES, 18, CANELONES, PASO CARRASCO, 589270, 6143640 
18/10/2016, RUTA UNO VIEJA, COLISIÓN ENTRE VEHÍCULOS, LEVE, MARTES, 19, SAN JOSE, PUNTAS DE VALDEZ, 527455, 6172840 
27/4/2016, ITUZAINGO, COLISIÓN ENTRE VEHÍCULOS, LEVE, MIÉRCOLES, 17, SAN JOSE, SAN JOSE DE MAYO, 526305, 6199455 
29/3/2016, CAMINO CARRASCO, ATROPELLO DE PEATÓN, LEVE, MARTES, 14, CANELONES, PASO CARRASCO, 586240, 6141670 
1/3/2016, NO SE INGRESO, COLISIÓN ENTRE VEHÍCULOS, GRAVE, MARTES, 15, COLONIA, SIN DATOS, 470345, 6201070 
7/6/2016, CAMINO AMERICA, COLISIÓN ENTRE VEHÍCULOS, LEVE, MARTES, 21, CANELONES, SIN DATOS, 572620, 6156720 
13/9/2016, GENERAL JOSE G. ARTIGAS, CAÍDA, LEVE, MARTES, 10, SORIANO, MERCEDES, 404035, 6320980 
25/10/2016, A. CAMEJO, ATROPELLO DE PEATÓN, GRAVE, MARTES, 6, CANELONES, TALA, 613670, 6199420 
14/4/2016, NO SE INGRESO, COLISIÓN ENTRE VEHÍCULOS, LEVE, JUEVES, 17, CANELONES, SIN DATOS, 602700, 6159035 
9/2/2016, NO SE INGRESO, DESPISTE, SIN LESIONADOS, MARTES, 20, CANELONES, SIN DATOS, 559355, 6167375 
2/8/2016, NO SE INGRESO, DESPISTE, LEVE, MARTES, 0, COLONIA, SIN DATOS, 444130, 6234950 
16/2/2016, DOCTOR POUEY, COLISIÓN ENTRE VEHÍCULOS, GRAVE, MARTES, 20, CANELONES, SIN DATOS, 571065, 6155910 
18/5/2016, NO SE INGRESO, CAÍDA, LEVE, MIÉRCOLES, 9, FLORIDA, SIN DATOS, 563800, 6269045 
31/5/2016, CAMINO ALDABALDE, COLISIÓN ENTRE VEHÍCULOS, LEVE, MARTES, 6, CANELONES, SIN DATOS, 570070, 6153895 
19/7/2016, TORRES GASRCIA ESQ R 74, COLISIÓN ENTRE VEHÍCULOS, LEVE, MARTES, 17, CANELONES, BARROS BLANCOS, 591460, 6153820 
8/3/2016, ASENCIO, COLISIÓN ENTRE VEHÍCULOS, GRAVE, MARTES, 21, SORIANO, DOLORES, 386220, 6290445 
20/7/2016, MARTIN ETCHEGOYEN, CAÍDA, LEVE, MIÉRCOLES, 9, DURAZNO, DURAZNO, 544950, 6306670 
27/9/2016, TREINTA Y TRES, COLISIÓN ENTRE VEHÍCULOS, LEVE, MARTES, 16, SORIANO, MERCEDES, 404890, 6319360 
12/10/2016, MALLORCA, COLISIÓN ENTRE VEHÍCULOS, SIN LESIONADOS, MIÉRCOLES, 9, CANELONES, EL PINAR, 598645, 6149030 
7/4/2016, RUTA 75 KM 35.500 S/19, CAÍDA, LEVE, JUEVES, 9, CANELONES, JARDINES DE PANDO, 594535, 6161090 
28/7/2016, NO SE INGRESO, COLISIÓN ENTRE VEHÍCULOS, LEVE, JUEVES, 22, SAN JOSE, SIN DATOS, 532975, 6198440 
2/3/2016, DOCTOR JULIAN BENGOA, COLISIÓN ENTRE VEHÍCULOS, LEVE, MIÉRCOLES, 23, SAN JOSE, SAN JOSE DE MAYO, 526000, 6200275 
4/5/2016, DOCTOR LUIS BATLLE BERRES, COLISIÓN CON OBSTÁCULO EN CALZADA, GRAVE, MIÉRCOLES, 7, CANELONES, SIN DATOS, 570720, 6157400 
17/8/2016, NO SE INGRESO, COLISIÓN ENTRE VEHÍCULOS, LEVE, MIÉRCOLES, 13, CANELONES, NEPTUNIA, 602810, 6150645 
16/8/2016, GENERAL FLORES, COLISIÓN ENTRE VEHÍCULOS, SIN LESIONADOS, MARTES, 17, COLONIA, COLONIA DEL SACRAMENTO, 421645, 6185325 
10/5/2016, SARANDI, COLISIÓN ENTRE VEHÍCULOS, SIN LESIONADOS, MARTES, 15, SAN JOSE, SAN JOSE DE MAYO, 526485, 6200255 
5/1/2016, RUTA 84 KM 0, DESPISTE, GRAVE, MARTES, 22, CANELONES, SIN DATOS, 589600, 6159520 
19/7/2016, GENERAL JOSE G. ARTIGAS, COLISIÓN ENTRE VEHÍCULOS, SIN LESIONADOS, MARTES, 9, COLONIA, ROSARIO, 467120, 6202175 
27/12/2016, DOCTOR RICARDO BRACERAS, COLISIÓN ENTRE VEHÍCULOS, SIN LESIONADOS, MARTES, 12, SORIANO, MERCEDES, 403650, 6320385 
4/10/2016, TREINTA Y TRES, COLISIÓN ENTRE VEHÍCULOS, SIN LESIONADOS, MARTES, 23, CANELONES, CANELONES, 565970, 6179430 
22/3/2016, SORIANO, COLISIÓN ENTRE VEHÍCULOS, SIN LESIONADOS, MARTES, 22, COLONIA, COLONIA DEL SACRAMENTO, 422895, 6185995 
12/7/2016, GENERAL JUAN ANTONIO LAVALLEJA, COLISIÓN ENTRE VEHÍCULOS, LEVE, MARTES, 19, SAN JOSE, SAN JOSE DE MAYO, 527350, 6200455 
22/11/2016, HORACIO GARCIA LAGOS, COLISIÓN ENTRE VEHÍCULOS, SIN LESIONADOS, MARTES, 8, CANELONES, LOMAS DE SOLYMAR, 596420, 6146035 
16/8/2016, MANUEL BORRAZAS, ATROPELLO DE PEATÓN, LEVE, MARTES, 12, CANELONES, SIN DATOS, 572210, 6160510 
28/4/2016, NO SE INGRESO, COLISIÓN ENTRE VEHÍCULOS, SIN LESIONADOS, JUEVES, 18, CANELONES, SIN DATOS, 623960, 6153670 
7/1/2016, AVENIDA PEREZ BUTLER, COLISIÓN ENTRE VEHÍCULOS, LEVE, JUEVES, 14, CANELONES, EL PINAR, 599530, 6148320 
21/6/2016,  RUTA NACIONAL OCHO, DESPISTE, GRAVE, MARTES, 23, CANELONES, BARROS BLANCOS, 592415, 6154725 
30/8/2016, NO SE INGRESO, COLISIÓN ENTRE VEHÍCULOS, LEVE, MARTES, 14, SAN JOSE, SIN DATOS, 518770, 6179230 
19/1/2016, VEINTIOCHO DE FEBRERO, COLISIÓN ENTRE VEHÍCULOS, LEVE, MARTES, 10, SORIANO, MERCEDES, 403760, 6320310 
8/3/2016, CARLOS P. PUIG, COLISIÓN ENTRE VEHÍCULOS, LEVE, MARTES, 16, SORIANO, DOLORES, 387110, 6289175 
11/10/2016, , COLISIÓN ENTRE VEHÍCULOS, LEVE, MARTES, 21, COLONIA, JUAN LACAZE, 458885, 6192645 
10/5/2016, E. MARTINEZ MONEGAL, COLISIÓN ENTRE VEHÍCULOS, LEVE, MARTES, 12, CANELONES, CANELONES, 566500, 6179680 
7/9/2016, FLORENCIO SANCHEZ, COLISIÓN ENTRE VEHÍCULOS, SIN LESIONADOS, MIÉRCOLES, 17, SORIANO, MERCEDES, 404260, 6320415 
12/10/2016, DIECIOCHO DE JULIO, CAÍDA, LEVE, MIÉRCOLES, 11, COLONIA, NUEVA HELVECIA, 478540, 6206150 
9/11/2016, NO SE INGRESO, DESPISTE, LEVE, MIÉRCOLES, 15, DURAZNO, SIN DATOS, 545880, 6302400 
2/11/2016, DOCTOR JULIAN BENGOA, COLISIÓN ENTRE VEHÍCULOS, SIN LESIONADOS, MIÉRCOLES, 7, SAN JOSE, SAN JOSE DE MAYO, 526220, 6200325 
21/6/2016, JUAN DANIEL COSTABEL, COLISIÓN ENTRE VEHÍCULOS, SIN LESIONADOS, MARTES, 7, COLONIA, LA PAZ, 471270, 6199200 
10/5/2016, SARANDI, COLISIÓN ENTRE VEHÍCULOS, SIN LESIONADOS, MARTES, 13, CANELONES, SANTA LUCIA, 555775, 6187065 
21/6/2016, TOMAS GOMENSORO, COLISIÓN ENTRE VEHÍCULOS, LEVE, MARTES, 16, SORIANO, MERCEDES, 404575, 6320370 
23/2/2016, NO SE INGRESO, CAÍDA, LEVE, MARTES, 1, FLORES, SIN DATOS, 518705, 6266330 
1/3/2016, NO SE INGRESO, ATROPELLO DE ANIMALES, LEVE, MARTES, 1, FLORIDA, FLORIDA, 571220, 6228870 
29/3/2016, EUSEBIO GIMENEZ, COLISIÓN ENTRE VEHÍCULOS, LEVE, MARTES, 22, SORIANO, MERCEDES, 403085, 6320605 
15/6/2016, NO SE INGRESO, ATROPELLO DE ANIMALES, LEVE, MIÉRCOLES, 14, CANELONES, SIN DATOS, 586200, 6159015 
22/6/2016, , COLISIÓN ENTRE VEHÍCULOS, GRAVE, MIÉRCOLES, 18, COLONIA, ROSARIO, 467870, 6201945 
7/9/2016, BERNADET SOSA, CAÍDA, LEVE, MIÉRCOLES, 23, DURAZNO, SARANDI DEL YI, 626690, 6309130 
21/12/2016, FRANCISCO ACUÑA DE FIGUEROA, COLISIÓN ENTRE VEHÍCULOS, LEVE, MIÉRCOLES, 12, FLORIDA, FLORIDA, 572440, 6227425 
3/8/2016, CORONEL LORENZO LATORRE, COLISIÓN ENTRE VEHÍCULOS, SIN LESIONADOS, MIÉRCOLES, 17, COLONIA, COLONIA DEL SACRAMENTO, 421940, 6188580 
2/8/2016, JOSE BATLLE Y ORDOÑEZ, COLISIÓN ENTRE VEHÍCULOS, LEVE, MARTES, 18, CANELONES, SAN RAMON, 595955, 6204870 
6/7/2016, NO SE INGRESO, COLISIÓN ENTRE VEHÍCULOS, SIN LESIONADOS, MIÉRCOLES, 14, CANELONES, SIN DATOS, 569490, 6165825 
1/12/2016, NO SE INGRESO, DESPISTE, SIN LESIONADOS, JUEVES, 1, SORIANO, SIN DATOS, 447395, 6245805 
2/8/2016, RUTA UNO KM 32, COLISIÓN ENTRE VEHÍCULOS, SIN LESIONADOS, MARTES, 16, SAN JOSE, PLAYA PASCUAL, 550460, 6155790 
14/1/2016, SENAQUE, COLISIÓN ENTRE VEHÍCULOS, LEVE, JUEVES, 7, COLONIA, JUAN LACAZE, 460140, 6189290 
5/5/2016, CAMINO CARRETON, DESPISTE, LEVE, JUEVES, 12, SAN JOSE, SIN DATOS, 524705, 6198100 
30/8/2016, REPUBLICA DEL PARAGUAY, COLISIÓN ENTRE VEHÍCULOS, SIN LESIONADOS, MARTES, 20, CANELONES, PROGRESO, 571910, 6163245 
19/10/2016, NO SE INGRESO, DESPISTE, GRAVE, MIÉRCOLES, 6, CANELONES, SIN DATOS, 596585, 6149040 
10/11/2016, NO SE INGRESO, COLISIÓN ENTRE VEHÍCULOS, SIN LESIONADOS, JUEVES, 8, CANELONES, SIN DATOS, 593030, 6146575 
9/6/2016, CIUDAD DE SAN RAMON Y C. DE LA PAZ, COLISIÓN ENTRE VEHÍCULOS, LEVE, JUEVES, 16, CANELONES, LOMAS DE SOLYMAR, 596705, 6148795 
26/5/2016, ANTONIO M. FERNANDEZ, COLISIÓN ENTRE VEHÍCULOS, SIN LESIONADOS, JUEVES, 17, FLORIDA, FLORIDA, 572640, 6226520 
11/10/2016, RUTA UNO KM 32, CAÍDA, LEVE, MARTES, 0, SAN JOSE, SIN DATOS, 550840, 6156080 
13/9/2016, , COLISIÓN ENTRE VEHÍCULOS, LEVE, MARTES, 17, SAN JOSE, DELTA DEL TIGRE Y VILLAS, 557085, 6151745 
15/11/2016, MANUEL ORIBE, CAÍDA, LEVE, MARTES, 7, DURAZNO, DURAZNO, 544260, 6306230 
5/1/2016, , COLISIÓN CON OBSTÁCULO EN CALZADA, LEVE, MARTES, 8, COLONIA, SIN DATOS, 443925, 6191870 
6/12/2016, NO SE INGRESO, ATROPELLO DE PEATÓN, LEVE, MARTES, 10, CANELONES, SIN DATOS, 567825, 6170380 
13/4/2016, RUTA 101 km. 20.800, COLISIÓN ENTRE VEHÍCULOS, FATAL, MIÉRCOLES, 22, CANELONES, SAN JOSE DE CARRASCO, 590400, 6145055 
4/5/2016, TIMOTEO APARICIO, COLISIÓN ENTRE VEHÍCULOS, SIN LESIONADOS, MIÉRCOLES, 14, FLORIDA, FLORIDA, 571100, 6226385 
16/8/2016, PEREZ BUTLER, COLISIÓN ENTRE VEHÍCULOS, LEVE, MARTES, 20, CANELONES, EL PINAR, 597815, 6148770 
21/12/2016, GENERAL JOSE G. ARTIGAS, ATROPELLO DE PEATÓN, LEVE, MIÉRCOLES, 21, FLORIDA, SARANDI GRANDE, 561980, 6268275 
22/6/2016, NO SE INGRESO, COLISIÓN ENTRE VEHÍCULOS, SIN LESIONADOS, MIÉRCOLES, 15, CANELONES, SIN DATOS, 616150, 6212970 
5/10/2016, FLORENCIO SANCHEZ, COLISIÓN ENTRE VEHÍCULOS, SIN LESIONADOS, MIÉRCOLES, 10, SORIANO, MERCEDES, 403955, 6320350 
13/9/2016, JULIO SOSA, CAÍDA, LEVE, MARTES, 9, CANELONES, SIN DATOS, 571720, 6156055 
7/9/2016, NO SE INGRESO, DESPISTE, LEVE, MIÉRCOLES, 12, FLORIDA, SIN DATOS, 574615, 6224855 
19/1/2016, GENERAL ARTIGAS, ATROPELLO DE PEATÓN, LEVE, MARTES, 19, CANELONES, PROGRESO, 571505, 6163740 
15/11/2016, NO SE INGRESO, COLISIÓN ENTRE VEHÍCULOS, LEVE, MARTES, 19, CANELONES, SIN DATOS, 568595, 6167380 
10/5/2016, NO SE INGRESO, DESPISTE, GRAVE, MARTES, 20, CANELONES, PARQUE DEL PLATA, 618530, 6153930 
30/6/2016, ASENCIO, COLISIÓN ENTRE VEHÍCULOS, LEVE, JUEVES, 14, SORIANO, DOLORES, 387075, 6289035 
18/2/2016, NO SE INGRESO, COLISIÓN ENTRE VEHÍCULOS, GRAVE, JUEVES, 7, CANELONES, BARROS BLANCOS, 592975, 6152480 
28/4/2016, AV. DEL PARQUE ESQ. VENEZUELA, COLISIÓN ENTRE VEHÍCULOS, SIN LESIONADOS, JUEVES, 18, CANELONES, PARQUE CARRASCO, 591385, 6142555 
18/10/2016, AVENIDA PEREZ BUTLER, COLISIÓN ENTRE VEHÍCULOS, SIN LESIONADOS, MARTES, 11, CANELONES, EL PINAR, 599770, 6148235 
14/6/2016, RUTA 8 Y REPUBLICA.-, COLISIÓN ENTRE VEHÍCULOS, SIN LESIONADOS, MARTES, 8, CANELONES, BARROS BLANCOS, 591300, 6153740 
19/10/2016, NO SE INGRESO, DESPISTE, LEVE, MIÉRCOLES, 15, SORIANO, SIN DATOS, 449250, 6246285 
13/4/2016, ROOSVELT, COLISIÓN ENTRE VEHÍCULOS, SIN LESIONADOS, MIÉRCOLES, 22, CANELONES, SIN DATOS, 571875, 6157370 
13/10/2016, BOULEVARD APARICIO SARAVIA, COLISIÓN ENTRE VEHÍCULOS, LEVE, JUEVES, 13, CANELONES, SIN DATOS, 571795, 6156540 
27/12/2016, AV. GIANNATTASIO esq. AV. LAGOS, COLISIÓN ENTRE VEHÍCULOS, FATAL, MARTES, 9, CANELONES, COLINAS DE SOLYMAR, 595275, 6148125 
19/7/2016, GENERAL FLORES, COLISIÓN ENTRE VEHÍCULOS, LEVE, MARTES, 9, FLORIDA, FLORIDA, 572845, 6226735 
26/7/2016, RUTA 5 km. 20, COLISIÓN ENTRE VEHÍCULOS, FATAL, MARTES, 11, CANELONES, SIN DATOS, 568255, 6154620 
5/1/2016, , DESPISTE, SIN LESIONADOS, MARTES, 10, COLONIA, SIN DATOS, 472405, 6210965 
3/5/2016, DOCTOR EVARISTO G. CIGANDA, COLISIÓN ENTRE VEHÍCULOS, LEVE, MARTES, 9, SAN JOSE, SAN JOSE DE MAYO, 526765, 6200075 
13/7/2016, COLOMBIA, COLISIÓN ENTRE VEHÍCULOS, LEVE, MIÉRCOLES, 3, CANELONES, SANTA LUCIA, 556375, 6186930 
10/3/2016, DIECIOCHO DE JULIO, COLISIÓN ENTRE VEHÍCULOS, SIN LESIONADOS, JUEVES, 20, SAN JOSE, SAN JOSE DE MAYO, 526310, 6200215 
17/11/2016, , ATROPELLO DE PEATÓN, GRAVE, JUEVES, 19, CANELONES, PASO CARRASCO, 587140, 6142415 
9/3/2016, RUTA 1 km. 90, DESPISTE, FATAL, MIÉRCOLES, 3, SAN JOSE, SIN DATOS, 504695, 6190060 
9/2/2016, NO SE INGRESO, CAÍDA, LEVE, MARTES, 18, CANELONES, PASO ESPINOSA, 565925, 6182715 
20/1/2016, , ATROPELLO DE PEATÓN, LEVE, MIÉRCOLES, 10, CANELONES, PASO CARRASCO, 587740, 6142780 
20/7/2016, TREINTA Y TRES, COLISIÓN ENTRE VEHÍCULOS, SIN LESIONADOS, MIÉRCOLES, 17, COLONIA, ROSARIO, 467600, 6202590 
20/12/2016, CALCAGNO ESQ. MEXICO, ATROPELLO DE PEATÓN, LEVE, MARTES, 18, CANELONES, SHANGRILA, 591245, 6143295 
27/12/2016,  AVENIDA RACINE, COLISIÓN ENTRE VEHÍCULOS, SIN LESIONADOS, MARTES, 14, CANELONES, PARQUE CARRASCO, 590185, 6142215 
5/6/2016, NO SE INGRESO, DESPISTE, LEVE, DOMINGO, 1, CANELONES, SIN DATOS, 568070, 6168840 
7/12/2016, NO SE INGRESO, DESPISTE, LEVE, MIÉRCOLES, 22, DURAZNO, SIN DATOS, 550260, 6332700 
24/2/2016, NO SE INGRESO, COLISIÓN ENTRE VEHÍCULOS, GRAVE, MIÉRCOLES, 17, CANELONES, FRACC. CNO. ANDALUZ Y R.84, 585980, 6154680 
12/10/2016, RUTA 8, COLISIÓN ENTRE VEHÍCULOS, SIN LESIONADOS, MIÉRCOLES, 18, CANELONES, PANDO, 595045, 6157010 
11/2/2016, NO SE INGRESO, DESPISTE, SIN LESIONADOS, JUEVES, 8, SAN JOSE, SIN DATOS, 526390, 6173165 
25/2/2016, GENERAL MANUEL ORIBE, COLISIÓN ENTRE VEHÍCULOS, LEVE, JUEVES, 22, SAN JOSE, LIBERTAD, 534895, 6168225 
29/3/2016, , DESPISTE, SIN LESIONADOS, MARTES, 7, SORIANO, SIN DATOS, 424140, 6308875 
15/12/2016, RUTA 8, COLISIÓN ENTRE VEHÍCULOS, LEVE, JUEVES, 18, CANELONES, PANDO, 595635, 6157410 
18/5/2016, CANELONES, COLISIÓN ENTRE VEHÍCULOS, GRAVE, MIÉRCOLES, 8, CANELONES, SIN DATOS, 571670, 6157365 
17/5/2016, JAGUEL, COLISIÓN ENTRE VEHÍCULOS, LEVE, MARTES, 14, CANELONES, LOMAS DE SOLYMAR, 598605, 6147535 
8/11/2016, GENERAL ARTIGAS, COLISIÓN ENTRE VEHÍCULOS, LEVE, MARTES, 10, CANELONES, PROGRESO, 571825, 6161805 
2/3/2016, MONSEÑOR, COLISIÓN ENTRE VEHÍCULOS, LEVE, MIÉRCOLES, 17, CANELONES, ESTACION ATLANTIDA, 613310, 6154755 
20/4/2016, NICOLAS GUERRA, COLISIÓN ENTRE VEHÍCULOS, GRAVE, MIÉRCOLES, 6, SAN JOSE, SAN JOSE DE MAYO, 526610, 6198890 
7/4/2016, JUAN J. CARDOZO, CAÍDA, LEVE, JUEVES, 8, FLORIDA, FLORIDA, 572430, 6227020 
8/6/2016, AVENIDA CENTENARIO, COLISIÓN ENTRE VEHÍCULOS, GRAVE, MIÉRCOLES, 18, CANELONES, SIN DATOS, 571415, 6154670 
17/5/2016, AVENIDA MANUEL D RODRIGUEZ, COLISIÓN ENTRE VEHÍCULOS, LEVE, MARTES, 18, SAN JOSE, SAN JOSE DE MAYO, 525880, 6200760 
19/4/2016, DOCTOR MORQUIO, COLISIÓN ENTRE VEHÍCULOS, SIN LESIONADOS, MARTES, 15, DURAZNO, DURAZNO, 545185, 6305730 
21/7/2016, GENERAL MANUEL ORIBE, COLISIÓN ENTRE VEHÍCULOS, LEVE, JUEVES, 17, FLORIDA, FLORIDA, 572295, 6226160 
14/12/2016, DOCTOR BALTASAR BRUM, COLISIÓN ENTRE VEHÍCULOS, LEVE, MIÉRCOLES, 19, CANELONES, SIN DATOS, 570885, 6156620 
14/9/2016, NO SE INGRESO, COLISIÓN ENTRE VEHÍCULOS, SIN LESIONADOS, MIÉRCOLES, 20, COLONIA, SIN DATOS, 435405, 6190715 
28/12/2016, DAMASO ANTONIO LARRAÑAGA, COLISIÓN ENTRE VEHÍCULOS, LEVE, MIÉRCOLES, 17, DURAZNO, DURAZNO, 543880, 6307020 
13/7/2016, DOCTOR LUIS ALBERTO DE HERRERA, CAÍDA, LEVE, MIÉRCOLES, 19, DURAZNO, DURAZNO, 544135, 6306650 
9/8/2016, NO SE INGRESO, DESPISTE, LEVE, MARTES, 14, SAN JOSE, SIN DATOS, 522285, 6184265 
6/7/2016, RAMBLA COSTANERA, COLISIÓN ENTRE VEHÍCULOS, SIN LESIONADOS, MIÉRCOLES, 13, CANELONES, SOLYMAR, 596155, 6145150 
19/4/2016, SANTIAGO GADEA, CAÍDA, LEVE, MARTES, 14, COLONIA, COLONIA DEL SACRAMENTO, 422230, 6188280 
23/2/2016, EL GALLO, CAÍDA, LEVE, MARTES, 9, CANELONES, BARROS BLANCOS, 593540, 6154430 
9/8/2016, , CAÍDA, LEVE, MARTES, 0, CANELONES, SAN BAUTISTA, 595755, 6188345 
2/3/2016, JOSE PEDRO VARELA, COLISIÓN ENTRE VEHÍCULOS, SIN LESIONADOS, MIÉRCOLES, 18, CANELONES, SIN DATOS, 572075, 6157265 
31/5/2016, ROGELIO SOSA, COLISIÓN ENTRE VEHÍCULOS, GRAVE, MARTES, 10, SORIANO, CARDONA, 465655, 6252055 
13/9/2016, ALEJANDRO GALLINAL, COLISIÓN ENTRE VEHÍCULOS, SIN LESIONADOS, MARTES, 12, FLORIDA, FLORIDA, 572205, 6226650 
11/10/2016, PIEDRAS, COLISIÓN ENTRE VEHÍCULOS, LEVE, MARTES, 18, CANELONES, PANDO, 594790, 6157750 
7/6/2016, CARLOS MARIA RAMIREZ, COLISIÓN ENTRE VEHÍCULOS, LEVE, MARTES, 16, FLORES, TRINIDAD, 509325, 6291210 
27/9/2016, RUTA TRES, COLISIÓN ENTRE VEHÍCULOS, LEVE, MARTES, 19, FLORES, SIN DATOS, 510940, 6288130 
16/8/2016, PUENTE DE RUTA UNO VIEJA , COLISIÓN ENTRE VEHÍCULOS, LEVE, MARTES, 16, SAN JOSE, SIN DATOS, 559010, 6150755 
13/9/2016, GENERAL JUAN ANTONIO LAVALLEJA, COLISIÓN ENTRE VEHÍCULOS, LEVE, MARTES, 13, DURAZNO, DURAZNO, 544005, 6306840 
1/6/2016, JOSE GARIBALDI, COLISIÓN ENTRE VEHÍCULOS, LEVE, MIÉRCOLES, 19, DURAZNO, DURAZNO, 544225, 6305045 
21/12/2016, GENERAL JOSE G. ARTIGAS, COLISIÓN ENTRE VEHÍCULOS, SIN LESIONADOS, MIÉRCOLES, 11, CANELONES, SANTA LUCIA, 556030, 6187340 
30/11/2016, JOSE ENRIQUE RODO, COLISIÓN ENTRE VEHÍCULOS, LEVE, MIÉRCOLES, 18, SORIANO, MERCEDES, 405100, 6320690 
5/10/2016, URUGUAY, COLISIÓN ENTRE VEHÍCULOS, GRAVE, MIÉRCOLES, 18, COLONIA, CARMELO, 381320, 6237200 
4/10/2016, SARANDI, COLISIÓN ENTRE VEHÍCULOS, SIN LESIONADOS, MARTES, 15, CANELONES, SANTA LUCIA, 556000, 6186850 
5/7/2016, R8 KM 29, COLISIÓN ENTRE VEHÍCULOS, SIN LESIONADOS, MARTES, 14, CANELONES, BARROS BLANCOS, 591680, 6153610 
2/3/2016, AVENIDA INGENIERO LUIS GIANNATTASIO, COLISIÓN ENTRE VEHÍCULOS, LEVE, MIÉRCOLES, 11, CANELONES, LAGOMAR, 593015, 6144770 
20/1/2016, ASAMBLEA, COLISIÓN ENTRE VEHÍCULOS, LEVE, MIÉRCOLES, 11, SAN JOSE, SAN JOSE DE MAYO, 526055, 6200035 
5/4/2016, GENERAL JOSE G. ARTIGAS, CAÍDA, LEVE, MARTES, 10, COLONIA, JUAN LACAZE, 459145, 6190350 
6/1/2016, NO SE INGRESO, DESPISTE, GRAVE, MIÉRCOLES, 3, SAN JOSE, SIN DATOS, 526090, 6237180 
27/12/2016,  ALEJANDRO GALLINAL, COLISIÓN ENTRE VEHÍCULOS, SIN LESIONADOS, MARTES, 9, FLORIDA, FLORIDA, 572535, 6226340 
25/10/2016,  REPUBLICA ARGENTINA, COLISIÓN ENTRE VEHÍCULOS, LEVE, MARTES, 0, CANELONES, SOLYMAR, 594675, 6145815 
5/1/2016, SIGRIST Y FENDER, COLISIÓN ENTRE VEHÍCULOS, SIN LESIONADOS, MARTES, 17, COLONIA, NUEVA HELVECIA, 478680, 6207050 
31/8/2016, GENERAL JOSE G. ARTIGAS, COLISIÓN ENTRE VEHÍCULOS, SIN LESIONADOS, MIÉRCOLES, 18, COLONIA, COLONIA DEL SACRAMENTO, 422580, 6186090 
5/10/2016, INGENIERO CARLOS A. MAGNONE, COLISIÓN ENTRE VEHÍCULOS, SIN LESIONADOS, MIÉRCOLES, 23, SORIANO, MERCEDES, 402595, 6320155 
31/8/2016, MANUEL D RODRIGUEZ, COLISIÓN ENTRE VEHÍCULOS, SIN LESIONADOS, MIÉRCOLES, 19, SAN JOSE, SAN JOSE DE MAYO, 526545, 6201040 
4/5/2016, ALFREDO PUIG, COLISIÓN ENTRE VEHÍCULOS, SIN LESIONADOS, MIÉRCOLES, 13, FLORES, TRINIDAD, 509615, 6291200 
7/6/2016, CLEMENTE FREGEIRO, COLISIÓN ENTRE VEHÍCULOS, LEVE, MARTES, 11, SORIANO, MERCEDES, 404195, 6319655 
9/2/2016, MIGUEL HIDALGO --COLONIA LAMAS--, COLISIÓN ENTRE VEHÍCULOS, SIN LESIONADOS, MARTES, 18, CANELONES, SIN DATOS, 591045, 6146540 
12/1/2016, AVENIDA GIANNATTASIO Y M. CASTRO, COLISIÓN ENTRE VEHÍCULOS, LEVE, MARTES, 12, CANELONES, SOLYMAR, 595305, 6146230 
20/12/2016, NO SE INGRESO, COLISIÓN ENTRE VEHÍCULOS, LEVE, MARTES, 17, CANELONES, SIN DATOS, 567915, 6191510 
1/3/2016, MARIA STAGNERO DE MUNAR, COLISIÓN ENTRE VEHÍCULOS, LEVE, MARTES, 19, CANELONES, CANELONES, 566100, 6179810 
16/3/2016, ASENCIO, COLISIÓN ENTRE VEHÍCULOS, LEVE, MIÉRCOLES, 10, CANELONES, SIN DATOS, 571570, 6160090 
14/9/2016, VEINTICINCO DE AGOSTO, COLISIÓN ENTRE VEHÍCULOS, SIN LESIONADOS, MIÉRCOLES, 18, COLONIA, JUAN LACAZE, 459480, 6189140 
13/1/2016, CALLE 20 ESQUINA 4, ATROPELLO DE ANIMALES, LEVE, MIÉRCOLES, 23, COLONIA, JUAN LACAZE, 458570, 6191420 
16/3/2016, DIECIOCHO DE JULIO, CAÍDA, LEVE, MIÉRCOLES, 15, SAN JOSE, SAN JOSE DE MAYO, 525225, 6199935 
20/4/2016,  CRUZ DEL SUR, COLISIÓN ENTRE VEHÍCULOS, LEVE, MIÉRCOLES, 20, CANELONES, SAN JOSE DE CARRASCO, 591570, 6143820 
5/7/2016, ELIAS REGULES Y VAZ FERREIRA , ATROPELLO DE PEATÓN, LEVE, MARTES, 22, CANELONES, PASO CARRASCO, 587150, 6142720 
4/10/2016, , COLISIÓN ENTRE VEHÍCULOS, SIN LESIONADOS, MARTES, 18, COLONIA, COLONIA DEL SACRAMENTO, 424680, 6186795 
23/11/2016, PANAM, COLISIÓN ENTRE VEHÍCULOS, LEVE, MIÉRCOLES, 21, CANELONES, VILLA AEROPARQUE, 591875, 6149435 
30/8/2016, CAMINO HUERO ESQUINA CAMINO ABREVADERO , COLISIÓN ENTRE VEHÍCULOS, LEVE, MARTES, 20, CANELONES, SIN DATOS, 585780, 6157285 
16/11/2016, CORONEL LORENZO LATORRE, COLISIÓN ENTRE VEHÍCULOS, LEVE, MIÉRCOLES, 14, COLONIA, COLONIA DEL SACRAMENTO, 422870, 6187195 
7/9/2016, JOAQUIN SUAREZ, COLISIÓN CON OBSTÁCULO EN CALZADA, LEVE, MIÉRCOLES, 17, CANELONES, SIN DATOS, 570945, 6153500 
26/4/2016, ITUZAINGO, CAÍDA, GRAVE, MARTES, 20, FLORIDA, 25 DE MAYO, 560555, 6214890 
3/5/2016, BOULEVARD APARICIO SARAVIA, COLISIÓN ENTRE VEHÍCULOS, LEVE, MARTES, 14, CANELONES, SIN DATOS, 571690, 6156540 
15/3/2016, PARALELA SUR ESQ. SECCO GARCIA, ATROPELLO DE PEATÓN, LEVE, MARTES, 18, CANELONES, EL BOSQUE, 593545, 6145055 
22/6/2016, PARALELA SUR GIANNATTASIO ESQ. AEROSUR, DESPISTE, SIN LESIONADOS, MIÉRCOLES, 21, CANELONES, SAN JOSE DE CARRASCO, 592030, 6144070 
16/3/2016, DOCTOR LUIS ALBERTO DE HERRERA, COLISIÓN ENTRE VEHÍCULOS, SIN LESIONADOS, MIÉRCOLES, 3, FLORES, TRINIDAD, 509430, 6291405 
3/5/2016, FLORENCIO SANCHEZ, CAÍDA, LEVE, MARTES, 7, SORIANO, MERCEDES, 403120, 6320170 
13/9/2016, DIECIOCHO DE JULIO, COLISIÓN ENTRE VEHÍCULOS, SIN LESIONADOS, MARTES, 18, SORIANO, MERCEDES, 403845, 6320945 
28/8/2016, MEVIR 3, CAÍDA, LEVE, DOMINGO, 2, FLORIDA, SIN DATOS, 561040, 6268165 
26/7/2016, SIERRA. ATANASIO, COLISIÓN ENTRE VEHÍCULOS, SIN LESIONADOS, MARTES, 19, FLORIDA, FLORIDA, 572005, 6227315 
5/7/2016, MUNICIPIO, ATROPELLO DE PEATÓN, LEVE, MARTES, 18, COLONIA, SIN DATOS, 423540, 6187500 
31/5/2016, ANDRES CHEVESTE, COLISIÓN ENTRE VEHÍCULOS, GRAVE, MARTES, 10, SORIANO, DOLORES, 387150, 6288710 
11/10/2016, AVENIDA DOCTOR LUIS ALBERTO DE HERRERA, COLISIÓN ENTRE VEHÍCULOS, GRAVE, MARTES, 20, SAN JOSE, SAN JOSE DE MAYO, 526615, 6199690 
20/7/2016, SAN JOSE, COLISIÓN ENTRE VEHÍCULOS, GRAVE, MIÉRCOLES, 13, CANELONES, TALA, 613670, 6199420 
5/1/2016, RUTA 42, ATROPELLO DE ANIMALES, SIN LESIONADOS, MARTES, 0, DURAZNO, SIN DATOS, 622570, 6387495 
20/1/2016, GENERAL FLORES, COLISIÓN ENTRE VEHÍCULOS, LEVE, MIÉRCOLES, 7, FLORES, TRINIDAD, 510240, 6291555 
27/4/2016, , COLISIÓN ENTRE VEHÍCULOS, LEVE, MIÉRCOLES, 16, CANELONES, AEROPUERTO INTERNACIONAL DE CARRASCO, 589210, 6143655 
23/11/2016, U. BARREIRO, COLISIÓN ENTRE VEHÍCULOS, LEVE, MIÉRCOLES, 12, FLORIDA, FLORIDA, 571915, 6226650 
1/6/2016, AV. LAS PERLAS Y LA GOLETA, ATROPELLO DE ANIMALES, LEVE, MIÉRCOLES, 19, SAN JOSE, DELTA DEL TIGRE Y VILLAS, 557740, 6153190 
29/6/2016, TAHITÍ Y LA GOLETA, CAÍDA, LEVE, MIÉRCOLES, 20, SAN JOSE, DELTA DEL TIGRE Y VILLAS, 557575, 6153060 
24/8/2016, COSTANERA Y MARQUEZ CASTRO, COLISIÓN ENTRE VEHÍCULOS, SIN LESIONADOS, MIÉRCOLES, 15, CANELONES, SOLYMAR, 595895, 6144910 
11/10/2016, , DESPISTE, LEVE, MARTES, 8, SORIANO, SIN DATOS, 421770, 6291585 
28/9/2016, OPERACIONAL III, DESPISTE, SIN LESIONADOS, MIÉRCOLES, 2, CANELONES, BARRA DE CARRASCO, 589355, 6141450 
27/12/2016, INGENIERO CARLOS A. MAGNONE, COLISIÓN CON OBSTÁCULO EN CALZADA, SIN LESIONADOS, MARTES, 15, SORIANO, MERCEDES, 402555, 6320600 
25/10/2016, RUTA UNO VIEJA, CAÍDA, LEVE, MARTES, 22, SAN JOSE, PLAYA PASCUAL, 551005, 6155925 
30/11/2016, AVENIDA AEROSUR, COLISIÓN ENTRE VEHÍCULOS, SIN LESIONADOS, MIÉRCOLES, 18, CANELONES, SAN JOSE DE CARRASCO, 591960, 6144085 
22/11/2016, AEROSUR ESQ GIANNATTASIO , COLISIÓN ENTRE VEHÍCULOS, SIN LESIONADOS, MARTES, 20, CANELONES, SAN JOSE DE CARRASCO, 591960, 6144105 
29/6/2016, RUTA 33 Y 17 METROS , ATROPELLO DE PEATÓN, GRAVE, MIÉRCOLES, 12, CANELONES, SIN DATOS, 581730, 6155985 
7/12/2016, NO SE INGRESO, DESPISTE, LEVE, MIÉRCOLES, 8, SAN JOSE, SIN DATOS, 527760, 6171925 
29/11/2016, JOSE ENRIQUE RODO, COLISIÓN ENTRE VEHÍCULOS, LEVE, MARTES, 10, CANELONES, CANELONES, 565455, 6179475 
6/9/2016, DOCTOR BALTASAR BRUM, COLISIÓN ENTRE VEHÍCULOS, LEVE, MARTES, 23, CANELONES, SIN DATOS, 571995, 6156650 
6/7/2016, DANIEL SOULIER, COLISIÓN ENTRE VEHÍCULOS, LEVE, MIÉRCOLES, 17, COLONIA, NUEVA HELVECIA, 478360, 6205230 
6/1/2016, GENERAL JOSE G. ARTIGAS, ATROPELLO DE PEATÓN, LEVE, MIÉRCOLES, 11, SORIANO, MERCEDES, 404110, 6320585 
6/4/2016, RIO URUGUAY, COLISIÓN ENTRE VEHÍCULOS, LEVE, MIÉRCOLES, 15, CANELONES, LAGOMAR, 592730, 6144510 
8/6/2016, WASHINGTON BELTRAN, COLISIÓN ENTRE VEHÍCULOS, SIN LESIONADOS, MIÉRCOLES, 11, CANELONES, SANTA LUCIA, 555945, 6187420 
18/5/2016, FRUCTUOSO RIVERA, COLISIÓN ENTRE VEHÍCULOS, LEVE, MIÉRCOLES, 20, DURAZNO, DURAZNO, 544135, 6306650 
26/10/2016, M. PACHECO Y OBES, COLISIÓN ENTRE VEHÍCULOS, LEVE, MIÉRCOLES, 11, SORIANO, CARDONA, 465760, 6252295 
10/2/2016, JOSE BATLLE Y ORDOÑEZ, COLISIÓN ENTRE VEHÍCULOS, LEVE, MIÉRCOLES, 17, FLORES, TRINIDAD, 509705, 6290990 
12/10/2016,  AVENIDA PEREZ BUTLER, COLISIÓN ENTRE VEHÍCULOS, SIN LESIONADOS, MIÉRCOLES, 17, CANELONES, EL PINAR, 596665, 6149060 
10/8/2016, DOCTOR FRANCISCO SOCA, CAÍDA, LEVE, MIÉRCOLES, 0, CANELONES, SIN DATOS, 571990, 6156750 
7/6/2016, , COLISIÓN ENTRE VEHÍCULOS, SIN LESIONADOS, MARTES, 22, CANELONES, PASO CARRASCO, 589220, 6143620 
15/6/2016, JOSE ENRIQUE RODO, COLISIÓN ENTRE VEHÍCULOS, SIN LESIONADOS, MIÉRCOLES, 7, CANELONES, CANELONES, 565685, 6179455 
6/4/2016, FRANCISCO MENESES, COLISIÓN ENTRE VEHÍCULOS, SIN LESIONADOS, MIÉRCOLES, 10, CANELONES, PANDO, 595435, 6157655 
19/7/2016, ZORRILLA DE SAN MARTIN, COLISIÓN ENTRE VEHÍCULOS, LEVE, MARTES, 14, DURAZNO, DURAZNO, 544030, 6306010 
15/6/2016, NO SE INGRESO, DESPISTE, SIN LESIONADOS, MIÉRCOLES, 19, FLORIDA, SIN DATOS, 639240, 6253560 
20/4/2016, DIECINUEVE DE ABRIL, COLISIÓN ENTRE VEHÍCULOS, LEVE, MIÉRCOLES, 20, DURAZNO, DURAZNO, 544145, 6306875 
19/7/2016, DIECIOCHO DE JULIO, COLISIÓN ENTRE VEHÍCULOS, LEVE, MARTES, 0, SORIANO, DOLORES, 386885, 6289155 
12/10/2016, PERU ESQ J ESPINO, COLISIÓN ENTRE VEHÍCULOS, FATAL, MIÉRCOLES, 7, CANELONES, JUANICO, 568500, 6171645 
25/5/2016, NO SE INGRESO, DESPISTE, SIN LESIONADOS, MIÉRCOLES, 20, CANELONES, SIN DATOS, 587990, 6157030 
28/9/2016,  PARALELA AL SUR, COLISIÓN ENTRE VEHÍCULOS, LEVE, MIÉRCOLES, 14, CANELONES, EL PINAR, 599730, 6148985 
17/8/2016, SAN MARTIN, CAÍDA, LEVE, MIÉRCOLES, 20, CANELONES, PROGRESO, 570540, 6164465 
7/12/2016, GENERAL APARICIO SARAVIA, CAÍDA, LEVE, MIÉRCOLES, 16, COLONIA, COLONIA DEL SACRAMENTO, 423000, 6186395 
14/9/2016, JARDINES DE CAMPISTEGUI, ATROPELLO DE ANIMALES, LEVE, MIÉRCOLES, 16, CANELONES, SIN DATOS, 572280, 6158515 
19/10/2016, NO SE INGRESO, DESPISTE, GRAVE, MIÉRCOLES, 11, COLONIA, SIN DATOS, 479050, 6200090 
27/4/2016, RUTA 3 KM 247, ATROPELLO DE ANIMALES, SIN LESIONADOS, MIÉRCOLES, 12, SORIANO, SIN DATOS, 483475, 6334645 
9/3/2016, JOSE BATLLE Y ORDOÑEZ, CAÍDA, LEVE, MIÉRCOLES, 19, DURAZNO, DURAZNO, 545465, 6305810 
13/7/2016, JOAQUIN SUAREZ, CAÍDA, LEVE, MIÉRCOLES, 12, FLORIDA, FLORIDA, 571985, 6226860 
28/12/2016, GENERAL JOSE G. ARTIGAS, CAÍDA, LEVE, MIÉRCOLES, 22, CANELONES, SAN JACINTO, 603655, 6176840 
13/1/2016, NO SE INGRESO, COLISIÓN ENTRE VEHÍCULOS, SIN LESIONADOS, MIÉRCOLES, 10, SAN JOSE, SIN DATOS, 527310, 6208015 
20/1/2016, AVENIDA INGENIERO LUIS GIANNATTASIO, COLISIÓN ENTRE VEHÍCULOS, LEVE, MIÉRCOLES, 12, CANELONES, SOLYMAR, 593890, 6145320 
24/8/2016, NO SE INGRESO, COLISIÓN ENTRE VEHÍCULOS, LEVE, MIÉRCOLES, 8, CANELONES, SIN DATOS, 563905, 6161710 
7/12/2016, GENERAL JUAN ANTONIO LAVALLEJA, ATROPELLO DE ANIMALES, GRAVE, MIÉRCOLES, 23, FLORIDA, FLORIDA, 572165, 6225740 
17/8/2016, MANUEL DE CASTRO Y CAREAGA, CAÍDA, LEVE, MIÉRCOLES, 0, SORIANO, MERCEDES, 404665, 6320800 
3/2/2016, DIECIOCHO DE JULIO, ATROPELLO DE ANIMALES, SIN LESIONADOS, MIÉRCOLES, 22, SORIANO, MERCEDES, 404180, 6319240 
30/11/2016, , COLISIÓN ENTRE VEHÍCULOS, LEVE, MIÉRCOLES, 10, CANELONES, PASO CARRASCO, 587765, 6142690 
19/7/2016, DOCTOR ANTONIO LEGNANI, CAÍDA, LEVE, MARTES, 4, CANELONES, SANTA LUCIA, 556375, 6187080 
10/8/2016, MANUEL D RODRIGUEZ, COLISIÓN CON OBSTÁCULO EN CALZADA, SIN LESIONADOS, MIÉRCOLES, 16, SAN JOSE, SAN JOSE DE MAYO, 527270, 6201255 
15/6/2016, FRANCISCA ASNAR DE ARTIGAS, ATROPELLO DE PEATÓN, GRAVE, MIÉRCOLES, 15, CANELONES, SIN DATOS, 573225, 6157420 
3/8/2016, NO SE INGRESO, CAÍDA, LEVE, MIÉRCOLES, 18, CANELONES, SIN DATOS, 586705, 6161450 
29/11/2016, PASO ARBELO, CAÍDA, LEVE, MARTES, 19, CANELONES, SIN DATOS, 638160, 6173450 
16/11/2016, RUTA 5 km. 139.500, COLISIÓN ENTRE VEHÍCULOS, FATAL, MIÉRCOLES, 11, FLORIDA, SIN DATOS, 562865, 6267145 
13/1/2016, NO SE INGRESO, COLISIÓN ENTRE VEHÍCULOS, SIN LESIONADOS, MIÉRCOLES, 8, SAN JOSE, SIN DATOS, 527190, 6207025 
16/11/2016, JOSE MARIA GARCIA Y TAMARISES, COLISIÓN ENTRE VEHÍCULOS, LEVE, MIÉRCOLES, 10, CANELONES, BARROS BLANCOS, 589855, 6151350 
15/6/2016, AVENIDA DOCTOR LUIS ALBERTO DE HERRERA, COLISIÓN ENTRE VEHÍCULOS, GRAVE, MIÉRCOLES, 13, SAN JOSE, SAN JOSE DE MAYO, 526160, 6199590 
17/8/2016, WILSON FERREIRA ALDUNATE, COLISIÓN ENTRE VEHÍCULOS, LEVE, MIÉRCOLES, 15, SORIANO, MERCEDES, 402580, 6320265 
14/12/2016, BOTINELLI esq. GUELMAN, COLISIÓN ENTRE VEHÍCULOS, FATAL, MIÉRCOLES, 1, SORIANO, DOLORES, 386845, 6288635 
2/3/2016, FLORENCIO SANCHEZ, COLISIÓN ENTRE VEHÍCULOS, LEVE, MIÉRCOLES, 10, SORIANO, MERCEDES, 404455, 6320455 
29/6/2016, RUTA 77 KM 1.800, ATROPELLO DE ANIMALES, GRAVE, MIÉRCOLES, 7, FLORIDA, SIN DATOS, 554440, 6193375 
11/5/2016, AVENIDA GENERAL JOSE GERVASIO ARTIGAS, ATROPELLO DE PEATÓN, LEVE, MIÉRCOLES, 9, CANELONES, SIN DATOS, 571070, 6156930 
22/6/2016, AVDA. L. ALBERTO DE HERRERA, COLISIÓN ENTRE VEHÍCULOS, LEVE, MIÉRCOLES, 13, CANELONES, PANDO, 595725, 6158050 
4/5/2016, CERRILLOS, COLISIÓN ENTRE VEHÍCULOS, LEVE, MIÉRCOLES, 18, CANELONES, SIN DATOS, 573020, 6157565 
13/4/2016, REPIBLICA Y CERRITO, COLISIÓN ENTRE VEHÍCULOS, LEVE, MIÉRCOLES, 7, CANELONES, BARROS BLANCOS, 592770, 6153410 
22/3/2016, RUTA 1 km. 124.500, ATROPELLO DE PEATÓN, FATAL, MARTES, 21, COLONIA, SIN DATOS, 472480, 6201075 
12/4/2016, , COLISIÓN ENTRE VEHÍCULOS, LEVE, MARTES, 9, CANELONES, ALTOS DE LA TAHONA, 593350, 6149655 
24/5/2016, LOS AZULEJOS, COLISIÓN ENTRE VEHÍCULOS, LEVE, MARTES, 7, CANELONES, PANDO, 595095, 6157675 
30/3/2016, WILSON FERREIRA ALDUNATE, COLISIÓN ENTRE VEHÍCULOS, LEVE, MIÉRCOLES, 20, CANELONES, PROGRESO, 571665, 6163715 
31/8/2016, AMERICO VESPUCIO, COLISIÓN ENTRE VEHÍCULOS, LEVE, MIÉRCOLES, 19, CANELONES, SIN DATOS, 573710, 6157540 
28/12/2016, DOCTOR EDUARDO ACEVEDO, COLISIÓN ENTRE VEHÍCULOS, LEVE, MIÉRCOLES, 17, CANELONES, PASO CARRASCO, 586505, 6142585 
7/12/2016, NO SE INGRESO, DESPISTE, LEVE, MIÉRCOLES, 6, CANELONES, SIN DATOS, 560185, 6171285 
21/9/2016, NO SE INGRESO, COLISIÓN ENTRE VEHÍCULOS, LEVE, MIÉRCOLES, 19, CANELONES, SIN DATOS, 586600, 6160965 
11/10/2016, RUTA 6 Y RUTA 85, ATROPELLO DE PEATÓN, LEVE, MARTES, 8, CANELONES, SIN DATOS, 582765, 6155380 
11/5/2016, VECINAL A RUTA OCHENTA Y UNO, DESPISTE, SIN LESIONADOS, MIÉRCOLES, 0, CANELONES, SAN BAUTISTA, 595750, 6188115 
13/1/2016, LUIS ALBERTO DE HERRERA, COLISIÓN ENTRE VEHÍCULOS, LEVE, MIÉRCOLES, 20, CANELONES, SIN DATOS, 583370, 6154950 
5/10/2016, ANTONIO M. FERNANDEZ, COLISIÓN ENTRE VEHÍCULOS, SIN LESIONADOS, MIÉRCOLES, 17, FLORIDA, FLORIDA, 571935, 6227245 
29/6/2016, MAZZINI, COLISIÓN ENTRE VEHÍCULOS, LEVE, MIÉRCOLES, 19, CANELONES, SIN DATOS, 570990, 6156145 
6/4/2016, NO SE INGRESO, CAÍDA, LEVE, MIÉRCOLES, 0, SORIANO, CHACRAS DE DOLORES, 388760, 6286040 
3/2/2016, CAMINO LA TORRE, CAÍDA, LEVE, MIÉRCOLES, 19, CANELONES, SIN DATOS, 629930, 6179365 
14/12/2016, NUEVO AMANECER , ATROPELLO DE PEATÓN, LEVE, MIÉRCOLES, 21, SORIANO, MERCEDES, 402805, 6319490 
3/8/2016, FRUCTUOSO RIVERA, COLISIÓN ENTRE VEHÍCULOS, LEVE, MIÉRCOLES, 13, DURAZNO, DURAZNO, 544585, 6306410 
24/8/2016, NO SE INGRESO, COLISIÓN ENTRE VEHÍCULOS, LEVE, MIÉRCOLES, 21, CANELONES, SANTA ROSA, 587710, 6181745 
17/2/2016, RUTA CIENTO UNO, COLISIÓN ENTRE VEHÍCULOS, LEVE, MIÉRCOLES, 10, CANELONES, COLONIA NICOLICH, 590605, 6146435 
27/7/2016, AVDA ARGENTINA Y 50 MTS., DESPISTE, LEVE, MIÉRCOLES, 7, CANELONES, PARQUE DEL PLATA, 617185, 6153175 
4/5/2016, RUTA CIENTO UNO ESQ.LOS AROMOS, ATROPELLO DE PEATÓN, LEVE, MIÉRCOLES, 16, CANELONES, SIN DATOS, 595450, 6179060 
30/11/2016, CAMINO GUAYCURU. PARAJE CERRO, CAÍDA, GRAVE, MIÉRCOLES, 16, SAN JOSE, SIN DATOS, 513795, 6217075 
12/10/2016, GENERAL JUAN ANTONIO LAVALLEJA, COLISIÓN ENTRE VEHÍCULOS, GRAVE, MIÉRCOLES, 17, SAN JOSE, SAN JOSE DE MAYO, 527330, 6200545 
28/12/2016, AVENIDA JUAN MARIA PEREZ Y FUENTES, COLISIÓN ENTRE VEHÍCULOS, SIN LESIONADOS, MIÉRCOLES, 20, CANELONES, EL PINAR, 601035, 6148450 
28/6/2016, LIBERTAD, CAÍDA, LEVE, MARTES, 20, COLONIA, FLORENCIO SANCHEZ, 466050, 6251230 
28/9/2016, NO SE INGRESO, COLISIÓN ENTRE VEHÍCULOS, SIN LESIONADOS, MIÉRCOLES, 13, CANELONES, BARROS BLANCOS, 593380, 6155550 
24/8/2016, NO SE INGRESO, COLISIÓN ENTRE VEHÍCULOS, LEVE, MIÉRCOLES, 8, CANELONES, SIN DATOS, 594810, 6147625 
9/3/2016, AVENIDA INGENIERO LUIS GIANNATTASIO, COLISIÓN ENTRE VEHÍCULOS, GRAVE, MIÉRCOLES, 14, CANELONES, EL PINAR, 599745, 6149020 
20/7/2016, GAVIOTA, COLISIÓN ENTRE VEHÍCULOS, LEVE, MIÉRCOLES, 13, CANELONES, LOMAS DE SOLYMAR, 596735, 6145825 
23/2/2016, , DESPISTE, SIN LESIONADOS, MARTES, 12, CANELONES, SIN DATOS, 602820, 6159900 
19/10/2016, NO SE INGRESO, DESPISTE, LEVE, MIÉRCOLES, 20, CANELONES, COLONIA NICOLICH, 591085, 6145590 
26/4/2016, PAYSANDU, COLISIÓN ENTRE VEHÍCULOS, LEVE, MARTES, 18, CANELONES, PROGRESO, 570730, 6163780 
13/4/2016, PARALELA AL NORTE  Y CALLE 70, COLISIÓN ENTRE VEHÍCULOS, GRAVE, MIÉRCOLES, 17, CANELONES, SOLYMAR, 593940, 6145390 
25/5/2016,  PARALELA AL SUR, COLISIÓN ENTRE VEHÍCULOS, SIN LESIONADOS, MIÉRCOLES, 16, CANELONES, LAGOMAR, 592415, 6144335 
16/2/2016, , COLISIÓN ENTRE VEHÍCULOS, LEVE, MARTES, 19, SAN JOSE, DELTA DEL TIGRE Y VILLAS, 554370, 6153580 
6/1/2016, RUTA INTERBALNEARIA, DESPISTE, GRAVE, MIÉRCOLES, 10, CANELONES, EL PINAR, 601105, 6149790 
25/10/2016, AVENIDA PEREZ BUTLER, COLISIÓN ENTRE VEHÍCULOS, SIN LESIONADOS, MARTES, 14, CANELONES, EL PINAR, 598815, 6148505 
27/1/2016, RAMBLA TOMAS BERRETA, COLISIÓN ENTRE VEHÍCULOS, LEVE, MIÉRCOLES, 20, CANELONES, ATLANTIDA, 613305, 6150750 
21/9/2016, NO SE INGRESO, COLISIÓN ENTRE VEHÍCULOS, SIN LESIONADOS, MIÉRCOLES, 13, CANELONES, COLONIA NICOLICH, 588005, 6147375 
22/6/2016, RIVERA ESQ BRUM, COLISIÓN ENTRE VEHÍCULOS, GRAVE, MIÉRCOLES, 17, CANELONES, CANELONES, 565730, 6178970 
7/12/2016, CAMINO LA TOTORA, COLISIÓN ENTRE VEHÍCULOS, LEVE, MIÉRCOLES, 18, COLONIA, NUEVA HELVECIA, 476345, 6203955 
9/8/2016, AVENIDA CALCAGNO, COLISIÓN ENTRE VEHÍCULOS, LEVE, MARTES, 21, CANELONES, SHANGRILA, 590995, 6143445 
4/5/2016, NO SE INGRESO, COLISIÓN ENTRE VEHÍCULOS, LEVE, MIÉRCOLES, 1, FLORIDA, SIN DATOS, 571640, 6205285 
24/8/2016, CALLE 12, COLISIÓN ENTRE VEHÍCULOS, SIN LESIONADOS, MIÉRCOLES, 14, SORIANO, JOSE ENRIQUE RODO, 450405, 6270980 
28/12/2016, CAMINO DE LA COSTA KM8, COLISIÓN ENTRE VEHÍCULOS, LEVE, MIÉRCOLES, 18, SAN JOSE, SIN DATOS, 527510, 6195870 
19/4/2016, NO SE INGRESO, DESPISTE, SIN LESIONADOS, MARTES, 13, CANELONES, SIN DATOS, 568940, 6196960 
15/11/2016, NO SE INGRESO, COLISIÓN ENTRE VEHÍCULOS, LEVE, MARTES, 7, CANELONES, SIN DATOS, 598200, 6158980 
30/3/2016, NO SE INGRESO, COLISIÓN ENTRE VEHÍCULOS, SIN LESIONADOS, MIÉRCOLES, 22, CANELONES, SIN DATOS, 568955, 6157350 
31/8/2016, CALLE 37, CAÍDA, GRAVE, MIÉRCOLES, 21, CANELONES, SOLYMAR, 593420, 6146190 
8/6/2016, MAESTRA ANA FOSALBA, COLISIÓN ENTRE VEHÍCULOS, SIN LESIONADOS, MIÉRCOLES, 11, FLORIDA, FLORIDA, 572340, 6228050 
10/8/2016,  JUAN FRANCISCO LARROBLA, CAÍDA, GRAVE, MIÉRCOLES, 19, FLORIDA, FLORIDA, 572270, 6225710 
22/11/2016, CALLE D Y CALLE 8, DESPISTE, SIN LESIONADOS, MARTES, 0, CANELONES, SIN DATOS, 615410, 6152420 
4/5/2016, , COLISIÓN ENTRE VEHÍCULOS, LEVE, MIÉRCOLES, 12, SORIANO, CHACRAS DE DOLORES, 387875, 6289775 
16/8/2016, , CAÍDA, GRAVE, MARTES, 15, COLONIA, SIN DATOS, 388820, 6244800 
5/4/2016, , CAÍDA, LEVE, MARTES, 14, CANELONES, COLONIA NICOLICH, 590230, 6146630 
20/12/2016, NO SE INGRESO, DESPISTE, LEVE, MARTES, 18, SAN JOSE, RADIAL, 522225, 6176775 
13/4/2016, RIO NEGRO, COLISIÓN ENTRE VEHÍCULOS, LEVE, MIÉRCOLES, 21, SORIANO, DOLORES, 386635, 6289970 
5/7/2016, FRANCISCO MACIEL, ATROPELLO DE PEATÓN, SIN LESIONADOS, MARTES, 0, DURAZNO, DURAZNO, 545185, 6305730 
30/3/2016, CIUDAD DE LA PAZ, COLISIÓN ENTRE VEHÍCULOS, LEVE, MIÉRCOLES, 15, CANELONES, LOMAS DE SOLYMAR, 597485, 6148535 
30/8/2016, NO SE INGRESO, COLISIÓN ENTRE VEHÍCULOS, SIN LESIONADOS, MARTES, 17, CANELONES, BARROS BLANCOS, 592210, 6154590 
19/10/2016, NO SE INGRESO, DESPISTE, SIN LESIONADOS, MIÉRCOLES, 8, FLORES, SIN DATOS, 529135, 6299355 
13/7/2016, RUTA CINCO VIEJA, COLISIÓN ENTRE VEHÍCULOS, LEVE, MIÉRCOLES, 9, CANELONES, SIN DATOS, 571765, 6159160 
26/10/2016, MARIA ALAMO DE SUAREZ, CAÍDA, LEVE, MIÉRCOLES, 7, CANELONES, CANELONES, 566210, 6178430 
2/3/2016, , ATROPELLO DE ANIMALES, LEVE, MIÉRCOLES, 13, CANELONES, COLONIA NICOLICH, 590675, 6146525 
12/10/2016, NO SE INGRESO, COLISIÓN ENTRE VEHÍCULOS, SIN LESIONADOS, MIÉRCOLES, 12, CANELONES, BARROS BLANCOS, 592210, 6154590 
27/12/2016, , DESPISTE, LEVE, MARTES, 15, COLONIA, SIN DATOS, 446310, 6191445 
17/2/2016, RUTA 107 Y RUTA 32 , COLISIÓN ENTRE VEHÍCULOS, GRAVE, MIÉRCOLES, 0, CANELONES, SIN DATOS, 577255, 6173085 
8/3/2016, NO SE INGRESO, DESPISTE, SIN LESIONADOS, MARTES, 6, COLONIA, SIN DATOS, 439130, 6238995 
21/12/2016, CALLE Q, COLISIÓN ENTRE VEHÍCULOS, LEVE, MIÉRCOLES, 19, CANELONES, PARQUE DEL PLATA, 617905, 6153770 
27/4/2016, P. MONTAGNE, COLISIÓN ENTRE VEHÍCULOS, LEVE, MIÉRCOLES, 15, SAN JOSE, SAN JOSE DE MAYO, 525910, 6199650 
7/12/2016, AVENIDA DEL URUGUAY, COLISIÓN ENTRE VEHÍCULOS, LEVE, MIÉRCOLES, 22, CANELONES, SOLYMAR, 594190, 6144790 
24/2/2016, CALLE 70, COLISIÓN ENTRE VEHÍCULOS, LEVE, MIÉRCOLES, 20, CANELONES, SOLYMAR, 593855, 6144975 
22/6/2016, MARTIN ETCHEGOYEN, COLISIÓN ENTRE VEHÍCULOS, LEVE, MIÉRCOLES, 18, DURAZNO, DURAZNO, 544385, 6305585 
9/2/2016, CAMINO LAS PIEDRITAS, CAÍDA, LEVE, MARTES, 18, CANELONES, SIN DATOS, 590385, 6158665 
13/4/2016, DOCTOR FRANCISCO SOCA, COLISIÓN ENTRE VEHÍCULOS, LEVE, MIÉRCOLES, 20, CANELONES, SIN DATOS, 570600, 6156680 
20/1/2016, RAMBLA Y BULLRICH, COLISIÓN ENTRE VEHÍCULOS, LEVE, MIÉRCOLES, 7, CANELONES, LAGOMAR, 593900, 6143590 
3/8/2016, CORONEL LORENZO LATORRE, COLISIÓN ENTRE VEHÍCULOS, LEVE, MIÉRCOLES, 16, COLONIA, COLONIA DEL SACRAMENTO, 422605, 6187585 
8/6/2016, CORONEL ANDRES LATORRE, COLISIÓN ENTRE VEHÍCULOS, LEVE, MIÉRCOLES, 18, DURAZNO, DURAZNO, 543970, 6305695 
1/3/2016, NO SE INGRESO, DESPISTE, SIN LESIONADOS, MARTES, 9, CANELONES, PASO PALOMEQUE, 567725, 6180050 
4/5/2016, 18 DE JULIO Y CASAGRANDE, COLISIÓN ENTRE VEHÍCULOS, LEVE, MIÉRCOLES, 19, SORIANO, MERCEDES, 404080, 6319745 
26/10/2016, 22 ENTRE 11 Y 1, COLISIÓN ENTRE VEHÍCULOS, LEVE, MIÉRCOLES, 10, CANELONES, ATLANTIDA, 613195, 6151355 
14/12/2016, NO SE INGRESO, COLISIÓN ENTRE VEHÍCULOS, SIN LESIONADOS, MIÉRCOLES, 18, CANELONES, SALINAS, 605765, 6151250 
27/9/2016, CESAR MAYO GUTIERREZ, COLISIÓN ENTRE VEHÍCULOS, LEVE, MARTES, 23, CANELONES, SIN DATOS, 570670, 6152785 
10/2/2016, NO SE INGRESO, COLISIÓN ENTRE VEHÍCULOS, LEVE, MIÉRCOLES, 20, CANELONES, SIN DATOS, 603215, 6154955 
16/3/2016, SOLIS Y 25 DE AGOSTO, COLISIÓN ENTRE VEHÍCULOS, LEVE, MIÉRCOLES, 10, CANELONES, JOAQUIN SUAREZ, 588015, 6155730 
3/8/2016, , COLISIÓN ENTRE VEHÍCULOS, LEVE, MIÉRCOLES, 17, CANELONES, PANDO, 594780, 6158915 
29/11/2016, SAN JOSE, DESPISTE, SIN LESIONADOS, MARTES, 22, COLONIA, COLONIA DEL SACRAMENTO, 421725, 6185410 
17/8/2016, AVENIDA DEL PLATA, COLISIÓN ENTRE VEHÍCULOS, LEVE, MIÉRCOLES, 19, CANELONES, LOMAS DE SOLYMAR, 595730, 6147025 
6/4/2016, NO SE INGRESO, CAÍDA, LEVE, MIÉRCOLES, 8, CANELONES, SIN DATOS, 587165, 6181535 
19/1/2016, , CAÍDA, LEVE, MARTES, 16, CANELONES, SIN DATOS, 588970, 6203150 
9/3/2016, 25 DE AGOSTO Y RAMBLA, COLISIÓN ENTRE VEHÍCULOS, SIN LESIONADOS, MIÉRCOLES, 20, CANELONES, COSTA AZUL, 622820, 6151705 
12/10/2016, RICARDO DETOMASI, COLISIÓN ENTRE VEHÍCULOS, LEVE, MIÉRCOLES, 17, SORIANO, MERCEDES, 403350, 6320855 
9/11/2016, GENERAL JOSE G. ARTIGAS, COLISIÓN ENTRE VEHÍCULOS, LEVE, MIÉRCOLES, 8, COLONIA, NUEVA PALMIRA, 370950, 6249825 
27/4/2016,  AVENIDA DOROTEO GARCIA LAGOS, COLISIÓN ENTRE VEHÍCULOS, LEVE, MIÉRCOLES, 15, CANELONES, LOMAS DE SOLYMAR, 596220, 6146830 
24/2/2016, MUNICIPIO, CAÍDA, LEVE, MIÉRCOLES, 17, SAN JOSE, LIBERTAD, 535840, 6167585 
7/12/2016, NO SE INGRESO, COLISIÓN ENTRE VEHÍCULOS, LEVE, MIÉRCOLES, 16, DURAZNO, SIN DATOS, 545240, 6303240 
2/11/2016, NO SE INGRESO, DESPISTE, SIN LESIONADOS, MIÉRCOLES, 8, CANELONES, SIN DATOS, 627910, 6163680 
24/5/2016, NO SE INGRESO, DESPISTE, LEVE, MARTES, 5, CANELONES, BARROS BLANCOS, 591015, 6153655 
21/9/2016, AVDA GIANNATTASIO Y AVDA CENTRAL, COLISIÓN ENTRE VEHÍCULOS, FATAL, MIÉRCOLES, 14, CANELONES, LOMAS DE SOLYMAR, 598015, 6148070 
3/5/2016, NO SE INGRESO, DESPISTE, LEVE, MARTES, 1, COLONIA, SIN DATOS, 420005, 6204325 
6/1/2016, SANTIAGO VAZQUEZ, COLISIÓN ENTRE VEHÍCULOS, LEVE, MIÉRCOLES, 0, DURAZNO, DURAZNO, 544625, 6306265 
1/6/2016, NO SE INGRESO, COLISIÓN ENTRE VEHÍCULOS, SIN LESIONADOS, MIÉRCOLES, 23, CANELONES, CANELONES, 566810, 6176460 
17/2/2016, FRANCISCO MENESES, ATROPELLO DE PEATÓN, LEVE, MIÉRCOLES, 20, CANELONES, PANDO, 595565, 6157160 
30/3/2016, ROTONDA RUTA 6, CAÍDA, LEVE, MIÉRCOLES, 7, CANELONES, VILLA SAN FELIPE, 586130, 6158455 
20/7/2016, SARANDI, COLISIÓN ENTRE VEHÍCULOS, SIN LESIONADOS, MIÉRCOLES, 16, CANELONES, SANTA LUCIA, 555890, 6186955 
13/1/2016, RUTA 1 KM 131, DESPISTE, SIN LESIONADOS, MIÉRCOLES, 7, COLONIA, SIN DATOS, 467595, 6200090 
14/9/2016, DIECIOCHO DE JULIO, COLISIÓN ENTRE VEHÍCULOS, LEVE, MIÉRCOLES, 12, SORIANO, MERCEDES, 404020, 6320045 
13/4/2016, GENERAL JOSE G. ARTIGAS, COLISIÓN ENTRE VEHÍCULOS, LEVE, MIÉRCOLES, 13, SAN JOSE, SAN JOSE DE MAYO, 526195, 6200435 
16/2/2016, , COLISIÓN ENTRE VEHÍCULOS, GRAVE, MARTES, 22, FLORES, TRINIDAD, 509410, 6289910 
1/6/2016, GENERAL JOSE G. ARTIGAS, COLISIÓN ENTRE VEHÍCULOS, SIN LESIONADOS, MIÉRCOLES, 16, CANELONES, CANELONES, 565770, 6179350 
6/4/2016, AEROSUR ESQ. VIEJO PANCHO, COLISIÓN ENTRE VEHÍCULOS, LEVE, MIÉRCOLES, 15, CANELONES, SAN JOSE DE CARRASCO, 591920, 6144140 
6/4/2016, JOSE ENRIQUE RODO, COLISIÓN ENTRE VEHÍCULOS, SIN LESIONADOS, MIÉRCOLES, 17, CANELONES, SIN DATOS, 570675, 6153090 
31/8/2016,  VICTOR F. PRIETTO, COLISIÓN ENTRE VEHÍCULOS, LEVE, MIÉRCOLES, 21, CANELONES, SOLYMAR, 594385, 6145375 
26/7/2016, , COLISIÓN ENTRE VEHÍCULOS, LEVE, MARTES, 16, CANELONES, BARRA DE CARRASCO, 589375, 6141380 
28/12/2016,  ROSALIA DE CASTRO --PASO CARRASCO--, ATROPELLO DE PEATÓN, LEVE, MIÉRCOLES, 19, CANELONES, PASO CARRASCO, 587725, 6142725 
14/12/2016,  VARIG, COLISIÓN ENTRE VEHÍCULOS, LEVE, MIÉRCOLES, 11, CANELONES, VILLA AEROPARQUE, 591645, 6149760 
6/4/2016, GENERAL FRUCTUOSO RIVERA, COLISIÓN ENTRE VEHÍCULOS, LEVE, MIÉRCOLES, 12, SORIANO, DOLORES, 386395, 6288975 
3/8/2016,  RUTA CIEN, ATROPELLO DE PEATÓN, LEVE, MIÉRCOLES, 12, DURAZNO, SAN JORGE, 603255, 6365405 
7/12/2016, FLORENCIO SANCHEZ, CAÍDA, LEVE, MIÉRCOLES, 9, SORIANO, MERCEDES, 403450, 6320245 
7/12/2016, NO SE INGRESO, COLISIÓN CON OBSTÁCULO EN CALZADA, SIN LESIONADOS, MIÉRCOLES, 20, SAN JOSE, SAN JOSE DE MAYO, 524945, 6199685 
[...]
6/6/2016, OMBUES Y TORRES GARCIA, COLISIÓN ENTRE VEHÍCULOS, LEVE, LUNES, 11, CANELONES, BARROS BLANCOS, 589340, 6152760 
18/7/2016, J.AGUIAR Y SIMON DEL PINO, CAÍDA, LEVE, LUNES, 16, FLORIDA, 25 DE AGOSTO, 554880, 6191765 
14/6/2016, NO SE INGRESO, COLISIÓN ENTRE VEHÍCULOS, GRAVE, MARTES, 17, CANELONES, SIN DATOS, 590970, 6162830 
8/8/2016, JOSE BATLLE Y ORDOÑEZ, COLISIÓN ENTRE VEHÍCULOS, LEVE, LUNES, 16, SAN JOSE, SAN JOSE DE MAYO, 526500, 6200200 
4/7/2016, CAMINO DE LOS COLONOS, COLISIÓN ENTRE VEHÍCULOS, SIN LESIONADOS, LUNES, 8, COLONIA, SIN DATOS, 476305, 6203915 
14/11/2016, NO SE INGRESO, CAÍDA, LEVE, LUNES, 0, DURAZNO, SANTA BERNARDINA, 545645, 6307475 
7/11/2016, , COLISIÓN ENTRE VEHÍCULOS, LEVE, LUNES, 16, CANELONES, PANDO, 594440, 6157195 
30/8/2016, ITUZAINGO, CAÍDA, LEVE, MARTES, 16, CANELONES, SANTA LUCIA, 555775, 6186915 
6/12/2016, CUATRO PIEDRAS, CAÍDA, LEVE, MARTES, 17, CANELONES, SIN DATOS, 568230, 6166260 
19/4/2016, NO SE INGRESO, COLISIÓN ENTRE VEHÍCULOS, SIN LESIONADOS, MARTES, 18, FLORIDA, SIN DATOS, 573150, 6214050 
14/6/2016, MANUEL ORIBE, COLISIÓN ENTRE VEHÍCULOS, LEVE, MARTES, 15, SORIANO, MERCEDES, 404375, 6320335 
19/1/2016, MONTEVIDEO Y VENTURA, DESPISTE, SIN LESIONADOS, MARTES, 18, CANELONES, BARROS BLANCOS, 591485, 6153915 
8/11/2016, , COLISIÓN ENTRE VEHÍCULOS, LEVE, MARTES, 20, COLONIA, COLONIA DEL SACRAMENTO, 423445, 6186135 
19/4/2016,  COSTANERA, COLISIÓN ENTRE VEHÍCULOS, LEVE, MARTES, 0, SAN JOSE, PLAYA PASCUAL, 549865, 6154430 
26/4/2016, AEROSUR ESQ. VIEJO PANCHO, CAÍDA, GRAVE, MARTES, 14, CANELONES, SAN JOSE DE CARRASCO, 591975, 6144105 
10/5/2016, FRANKLIN DELANO ROOSEVELT, COLISIÓN ENTRE VEHÍCULOS, LEVE, MARTES, 18, COLONIA, CARMELO, 380480, 6237650 
27/9/2016, GENERAL FLORES, COLISIÓN ENTRE VEHÍCULOS, SIN LESIONADOS, MARTES, 3, COLONIA, COLONIA DEL SACRAMENTO, 422295, 6185350 
26/1/2016, FRANCISCO MENESES, COLISIÓN ENTRE VEHÍCULOS, LEVE, MARTES, 10, CANELONES, PANDO, 595470, 6157555 
14/1/2016, SAN ISIDRO, ATROPELLO DE ANIMALES, LEVE, JUEVES, 7, CANELONES, SIN DATOS, 572085, 6159755 
14/7/2016, SARANDI, CAÍDA, GRAVE, JUEVES, 18, DURAZNO, SARANDI DEL YI, 627690, 6309300 
19/5/2016, FRANCISCO MACIEL, ATROPELLO DE ANIMALES, LEVE, JUEVES, 16, DURAZNO, DURAZNO, 545185, 6305730 
15/6/2016, TOMAS BERRETA, COLISIÓN ENTRE VEHÍCULOS, LEVE, MIÉRCOLES, 19, CANELONES, SANTA ROSA, 587710, 6181735 
8/3/2016, , COLISIÓN ENTRE VEHÍCULOS, GRAVE, MARTES, 12, SAN JOSE, LIBERTAD, 534590, 6166345 
26/3/2016, NO SE INGRESO, DESPISTE, SIN LESIONADOS, SÁBADO, 17, CANELONES, SIN DATOS, 615135, 6152690 
22/11/2016, CAMINO LOS HORNEROS, COLISIÓN ENTRE VEHÍCULOS, LEVE, MARTES, 10, CANELONES, ALTOS DE LA TAHONA, 592720, 6149785 
21/6/2016, PANAME, ATROPELLO DE ANIMALES, SIN LESIONADOS, MARTES, 18, CANELONES, EL PINAR, 600685, 6148965 
2/8/2016, RUTA NACIONAL OCHO, ATROPELLO DE PEATÓN, LEVE, MARTES, 18, CANELONES, PANDO, 595315, 6157085 
27/9/2016, NO SE INGRESO, COLISIÓN ENTRE VEHÍCULOS, GRAVE, MARTES, 7, CANELONES, COLONIA NICOLICH, 588005, 6147375 
25/8/2016, NO SE INGRESO, COLISIÓN ENTRE VEHÍCULOS, LEVE, JUEVES, 19, CANELONES, SIN DATOS, 590810, 6147165 
20/9/2016, ZAPICAN, COLISIÓN ENTRE VEHÍCULOS, LEVE, MARTES, 15, COLONIA, JUAN LACAZE, 460140, 6189490 
20/12/2016, GENERAL FLORES, COLISIÓN ENTRE VEHÍCULOS, LEVE, MARTES, 13, FLORES, TRINIDAD, 510240, 6291555 
24/5/2016, DOCTOR LUIS BATLLE BERRES, CAÍDA, LEVE, MARTES, 21, CANELONES, SIN DATOS, 570710, 6156150 
10/5/2016, FRANCISCO MACIEL, CAÍDA, LEVE, MARTES, 11, DURAZNO, DURAZNO, 545025, 6305480 
17/8/2016, SANTIAGO VAZQUEZ, COLISIÓN ENTRE VEHÍCULOS, LEVE, MIÉRCOLES, 20, DURAZNO, DURAZNO, 544075, 6305205 
6/10/2016, NO SE INGRESO, COLISIÓN ENTRE VEHÍCULOS, GRAVE, JUEVES, 17, CANELONES, SIN DATOS, 563840, 6161980 
9/3/2016, ALFREDO PUIG, COLISIÓN ENTRE VEHÍCULOS, LEVE, MIÉRCOLES, 18, FLORES, TRINIDAD, 509645, 6291785 
28/6/2016, AVENIDA DOCTOR LUIS ALBERTO DE HERRERA, DESPISTE, LEVE, MARTES, 12, SAN JOSE, SAN JOSE DE MAYO, 526950, 6199765 
29/11/2016, INES DURAN, COLISIÓN ENTRE VEHÍCULOS, LEVE, MARTES, 13, FLORES, TRINIDAD, 509250, 6291800 
20/9/2016, NO SE INGRESO, DESPISTE, LEVE, MARTES, 14, COLONIA, SIN DATOS, 453820, 6196190 
3/2/2016, CHARRUA, CAÍDA, LEVE, MIÉRCOLES, 16, COLONIA, CARMELO, 381470, 6236175 
19/7/2016, DOCTOR POUEY, COLISIÓN ENTRE VEHÍCULOS, GRAVE, MARTES, 21, CANELONES, SIN DATOS, 571065, 6156145 
31/8/2016, INSTRUCCIONES, ATROPELLO DE PEATÓN, LEVE, MIÉRCOLES, 19, SAN JOSE, SAN JOSE DE MAYO, 526230, 6201410 
25/5/2016, GENERAL ARTIGAS, COLISIÓN ENTRE VEHÍCULOS, LEVE, MIÉRCOLES, 8, CANELONES, PANDO, 595185, 6157475 
13/4/2016, MANUEL FREIRE, COLISIÓN ENTRE VEHÍCULOS, LEVE, MIÉRCOLES, 22, CANELONES, SIN DATOS, 570990, 6156265 
13/12/2016, NO SE INGRESO, COLISIÓN ENTRE VEHÍCULOS, LEVE, MARTES, 12, SAN JOSE, SAN JOSE DE MAYO, 525085, 6199205 
26/7/2016, NO SE INGRESO, COLISIÓN ENTRE VEHÍCULOS, SIN LESIONADOS, MARTES, 11, CANELONES, SIN DATOS, 592695, 6151535 
27/12/2016, G. IMHOF, COLISIÓN ENTRE VEHÍCULOS, LEVE, MARTES, 15, COLONIA, NUEVA HELVECIA, 478350, 6205585 
12/4/2016, AVENIDA DE LAS AMERICAS, COLISIÓN ENTRE VEHÍCULOS, SIN LESIONADOS, MARTES, 17, CANELONES, PASO CARRASCO, 589220, 6143650 
25/10/2016, GENERAL JUAN ANTONIO LAVALLEJA, COLISIÓN ENTRE VEHÍCULOS, LEVE, MARTES, 23, DURAZNO, DURAZNO, 543745, 6306355 
8/3/2016, JOSE GOMEZ, CAÍDA, LEVE, MARTES, 6, DURAZNO, DURAZNO, 543055, 6304955 
29/6/2016, PASAJE SAUCE, COLISIÓN ENTRE VEHÍCULOS, GRAVE, MIÉRCOLES, 23, CANELONES, SIN DATOS, 573295, 6157850 
26/1/2016, NO SE INGRESO, COLISIÓN ENTRE VEHÍCULOS, SIN LESIONADOS, MARTES, 9, CANELONES, SIN DATOS, 568415, 6155080 
8/3/2016, , CAÍDA, LEVE, MARTES, 8, CANELONES, SIN DATOS, 593050, 6146825 
2/8/2016, GENERAL JOSE G. ARTIGAS, CAÍDA, LEVE, MARTES, 18, COLONIA, JUAN LACAZE, 459480, 6189710 
7/9/2016, NO SE INGRESO, CAÍDA, LEVE, MIÉRCOLES, 20, CANELONES, AEROPUERTO INTERNACIONAL DE CARRASCO, 590620, 6146195 
4/6/2016, , DESPISTE, SIN LESIONADOS, SÁBADO, 18, FLORIDA, SIN DATOS, 671055, 6305350 
20/1/2016, CAMINO ALDABALDE, COLISIÓN ENTRE VEHÍCULOS, LEVE, MIÉRCOLES, 8, CANELONES, SIN DATOS, 570070, 6153895 
6/1/2016, RUTA 1 CASI ENTRADA A NUEVA HELVECIA, COLISIÓN ENTRE VEHÍCULOS, SIN LESIONADOS, MIÉRCOLES, 11, COLONIA, COLONIA VALDENSE, 477160, 6200370 
21/12/2016, AVENIDA GONZALEZ MORENO, COLISIÓN ENTRE VEHÍCULOS, SIN LESIONADOS, MIÉRCOLES, 17, COLONIA, COLONIA DEL SACRAMENTO, 423315, 6187020 
23/8/2016, NO SE INGRESO, DESPISTE, LEVE, MARTES, 21, CANELONES, SIN DATOS, 586765, 6172180 
25/10/2016, NO SE INGRESO, CAÍDA, GRAVE, MARTES, 15, CANELONES, SIN DATOS, 587090, 6165565 
19/4/2016, JOAQUIN SECCO ILLA, ATROPELLO DE PEATÓN, LEVE, MARTES, 18, CANELONES, PASO CARRASCO, 588525, 6142090 
21/6/2016, DOCTOR LUIS ALBERTO DE HERRERA, COLISIÓN ENTRE VEHÍCULOS, LEVE, MARTES, 10, FLORIDA, FLORIDA, 572570, 6226740 
10/8/2016, JUAN J. VAZQUEZ, COLISIÓN ENTRE VEHÍCULOS, GRAVE, MIÉRCOLES, 0, SORIANO, DOLORES, 386900, 6288935 
19/1/2016, NO SE INGRESO, COLISIÓN ENTRE VEHÍCULOS, LEVE, MARTES, 21, COLONIA, SIN DATOS, 458815, 6193065 
30/6/2016, DIECIOCHO DE JULIO, COLISIÓN ENTRE VEHÍCULOS, LEVE, JUEVES, 15, DURAZNO, DURAZNO, 544275, 6306690 
25/2/2016, EUSEBIO PIRIZ, COLISIÓN ENTRE VEHÍCULOS, LEVE, JUEVES, 12, DURAZNO, DURAZNO, 544350, 6306185 
19/4/2016, ITUZAINGO, COLISIÓN ENTRE VEHÍCULOS, LEVE, MARTES, 16, SORIANO, MERCEDES, 404475, 6319390 
15/3/2016, JOSE BATLLE Y ORDOÑEZ, COLISIÓN ENTRE VEHÍCULOS, LEVE, MARTES, 23, FLORIDA, FLORIDA, 572430, 6226305 
12/4/2016, ZORRILLA DE SAN MARTIN, COLISIÓN ENTRE VEHÍCULOS, LEVE, MARTES, 12, SAN JOSE, ECILDA PAULLIER, 495555, 6198240 
27/4/2016, SILVESTRE GUILLEN, ATROPELLO DE PEATÓN, LEVE, MIÉRCOLES, 13, CANELONES, SIN DATOS, 583200, 6154835 
29/6/2016, CESAR M. GUTIERREZ E/ RINCON, COLISIÓN ENTRE VEHÍCULOS, GRAVE, MIÉRCOLES, 18, CANELONES, SIN DATOS, 570675, 6152575 
15/11/2016, GENERAL FRUCTUOSO RIVERA, COLISIÓN ENTRE VEHÍCULOS, LEVE, MARTES, 14, COLONIA, FLORENCIO SANCHEZ, 466050, 6251230 
2/8/2016, GENERAL JUAN ANTONIO LAVALLEJA, COLISIÓN ENTRE VEHÍCULOS, LEVE, MARTES, 0, SORIANO, DOLORES, 387385, 6288750 
2/7/2016, NO SE INGRESO, DESPISTE, SIN LESIONADOS, SÁBADO, 8, CANELONES, PARQUE DEL PLATA, 617930, 6153850 
4/5/2016, JOSE ENRIQUE RODO, DESPISTE, SIN LESIONADOS, MIÉRCOLES, 15, CANELONES, SIN DATOS, 569965, 6153150 
9/8/2016, , CAÍDA, SIN LESIONADOS, MARTES, 23, SORIANO, SIN DATOS, 379445, 6301275 
2/2/2016, LEANDRO GOMEZ, CAÍDA, GRAVE, MARTES, 21, FLORIDA, FLORIDA, 571210, 6226445 
13/4/2016, DOCTOR MORQUIO, CAÍDA, LEVE, MIÉRCOLES, 6, DURAZNO, DURAZNO, 544350, 6306185 
10/8/2016, NO SE INGRESO, COLISIÓN ENTRE VEHÍCULOS, SIN LESIONADOS, MIÉRCOLES, 11, COLONIA, SIN DATOS, 471975, 6201150 
24/5/2016, LOS AROMOS Y CALLE 39, COLISIÓN ENTRE VEHÍCULOS, SIN LESIONADOS, MARTES, 14, CANELONES, SOLYMAR, 593610, 6146455 
16/6/2016, PASO ESCOBAR , COLISIÓN ENTRE VEHÍCULOS, LEVE, JUEVES, 18, CANELONES, SAN JOSE DE CARRASCO, 590670, 6145040 
29/11/2016, NO SE INGRESO, DESPISTE, LEVE, MARTES, 19, CANELONES, SIN DATOS, 572925, 6159300 
20/5/2016, NO SE INGRESO, ATROPELLO DE ANIMALES, LEVE, VIERNES, 22, COLONIA, SIN DATOS, 459540, 6197810 
17/5/2016, DOCTOR POUEY, COLISIÓN ENTRE VEHÍCULOS, GRAVE, MARTES, 14, CANELONES, SIN DATOS, 571065, 6156030 
19/10/2016, JAGUEL Y COPACABANA, COLISIÓN ENTRE VEHÍCULOS, GRAVE, MIÉRCOLES, 8, CANELONES, LOMAS DE SOLYMAR, 598365, 6147325 
24/8/2016, RUTA 75 km. 38.100, COLISIÓN ENTRE VEHÍCULOS, FATAL, MIÉRCOLES, 14, CANELONES, SIN DATOS, 594150, 6164235 
8/12/2016, JOSE BATLLE Y ORDOÑEZ, COLISIÓN ENTRE VEHÍCULOS, LEVE, JUEVES, 10, FLORIDA, FLORIDA, 572285, 6226440 
30/6/2016, NO SE INGRESO, COLISIÓN ENTRE VEHÍCULOS, SIN LESIONADOS, JUEVES, 7, CANELONES, BARROS BLANCOS, 591415, 6153965 
17/11/2016, JOSE ENRIQUE RODO, COLISIÓN ENTRE VEHÍCULOS, LEVE, JUEVES, 20, SORIANO, MERCEDES, 403320, 6320315 
12/5/2016, JOSE GOMEZ, COLISIÓN CON OBSTÁCULO EN CALZADA, GRAVE, JUEVES, 6, DURAZNO, DURAZNO, 542920, 6304795 
16/6/2016, DIECIOCHO DE JULIO, COLISIÓN CON OBSTÁCULO EN CALZADA, SIN LESIONADOS, JUEVES, 0, DURAZNO, DURAZNO, 544455, 6306590 
5/7/2016, PERUCHENA, COLISIÓN ENTRE VEHÍCULOS, SIN LESIONADOS, MARTES, 17, SORIANO, PALMITAS, 425290, 6291780 
22/6/2016, NO SE INGRESO, DESPISTE, LEVE, MIÉRCOLES, 7, CANELONES, SIN DATOS, 586395, 6163455 
20/9/2016, RUTA INTERBALNEARIA, DESPISTE, SIN LESIONADOS, MARTES, 9, CANELONES, NEPTUNIA, 602055, 6150445 
31/3/2016, JOSE BATLLE Y ORDOÑEZ, COLISIÓN ENTRE VEHÍCULOS, LEVE, JUEVES, 17, FLORES, TRINIDAD, 509690, 6290580 
23/6/2016, AVENIDA DOCTOR BALTASAR BRUM, COLISIÓN ENTRE VEHÍCULOS, LEVE, JUEVES, 20, COLONIA, COLONIA DEL SACRAMENTO, 423000, 6186240 
16/8/2016, CESAR MAYO GUTIERREZ, CAÍDA, LEVE, MARTES, 8, CANELONES, SIN DATOS, 570675, 6153400 
3/8/2016, BERNA, COLISIÓN ENTRE VEHÍCULOS, LEVE, MIÉRCOLES, 18, COLONIA, NUEVA HELVECIA, 478240, 6205965 
30/3/2016, , COLISIÓN ENTRE VEHÍCULOS, LEVE, MIÉRCOLES, 21, CANELONES, SIN DATOS, 591725, 6150565 
19/1/2016, FLORENCIO SANCHEZ, COLISIÓN ENTRE VEHÍCULOS, LEVE, MARTES, 19, SORIANO, MERCEDES, 403330, 6320220 
10/3/2016, GENERAL JUAN ANTONIO LAVALLEJA, CAÍDA, GRAVE, JUEVES, 12, SAN JOSE, SAN JOSE DE MAYO, 527400, 6200225 
17/5/2016, NO SE INGRESO, DESPISTE, LEVE, MARTES, 11, FLORIDA, SIN DATOS, 627445, 6241830 
5/1/2016, GENERAL JOSE G. ARTIGAS, COLISIÓN ENTRE VEHÍCULOS, SIN LESIONADOS, MARTES, 10, CANELONES, SANTA LUCIA, 556030, 6187340 
23/1/2016, RUTA N° 54, DESPISTE, LEVE, SÁBADO, 22, COLONIA, SIN DATOS, 438025, 6240190 
4/10/2016, AEROSUR Y CALLE 5, ATROPELLO DE ANIMALES, SIN LESIONADOS, MARTES, 18, CANELONES, SAN JOSE DE CARRASCO, 591010, 6144885 
24/8/2016, JOSE PEDRO VARELA, COLISIÓN ENTRE VEHÍCULOS, SIN LESIONADOS, MIÉRCOLES, 9, COLONIA, COLONIA DEL SACRAMENTO, 422990, 6186105 
21/6/2016, NO SE INGRESO, DESPISTE, SIN LESIONADOS, MARTES, 8, CANELONES, SIN DATOS, 569230, 6158385 
6/4/2016, RUTA N° 12 KILOMETRO 35, DESPISTE, SIN LESIONADOS, MIÉRCOLES, 17, COLONIA, SIN DATOS, 371855, 6249785 
22/3/2016, NO SE INGRESO, DESPISTE, LEVE, MARTES, 17, SAN JOSE, SIN DATOS, 521675, 6182420 
5/4/2016, NO SE INGRESO, CAÍDA, GRAVE, MARTES, 11, SAN JOSE, SIN DATOS, 529510, 6199585 
3/8/2016, NO SE INGRESO, DESPISTE, LEVE, MIÉRCOLES, 9, SORIANO, SIN DATOS, 454885, 6248160 
16/2/2016, AVDA GIANNATTASIO KM 30.5, COLISIÓN ENTRE VEHÍCULOS, GRAVE, MARTES, 8, CANELONES, EL PINAR, 600150, 6149140 
5/1/2016, SECCO GARCIA ESQ. GIANNATTASIO, COLISIÓN ENTRE VEHÍCULOS, LEVE, MARTES, 21, CANELONES, SOLYMAR, 593570, 6145085 
10/11/2016, NO SE INGRESO, COLISIÓN ENTRE VEHÍCULOS, SIN LESIONADOS, JUEVES, 9, CANELONES, EL PINAR, 600385, 6149850 
28/1/2016, CRISTOBAL COLON, COLISIÓN CON OBSTÁCULO EN CALZADA, SIN LESIONADOS, JUEVES, 10, SORIANO, MERCEDES, 404180, 6319755 
25/8/2016, ELIAS REGULES, COLISIÓN ENTRE VEHÍCULOS, LEVE, JUEVES, 22, CANELONES, SIN DATOS, 571850, 6158735 
23/8/2016, NO SE INGRESO, CAÍDA, SIN LESIONADOS, MARTES, 13, CANELONES, SIN DATOS, 561315, 6173285 
26/5/2016, LIBERTADOR SAN MARTIN, COLISIÓN ENTRE VEHÍCULOS, LEVE, JUEVES, 17, CANELONES, SIN DATOS, 573590, 6157870 
31/8/2016, DON BOSCO, COLISIÓN ENTRE VEHÍCULOS, LEVE, MIÉRCOLES, 0, SORIANO, MERCEDES, 404780, 6319870 
5/4/2016,  BOULEVARD CARDONA-FLORENCIO SANCHEZ, COLISIÓN ENTRE VEHÍCULOS, GRAVE, MARTES, 0, SORIANO, CARDONA, 465560, 6251810 
12/4/2016, NO SE INGRESO, COLISIÓN ENTRE VEHÍCULOS, LEVE, MARTES, 18, CANELONES, SIN DATOS, 615505, 6201770 
10/5/2016, RUTA 107 KM 07 CAMINO PASO DEL MEDIO, DESPISTE, SIN LESIONADOS, MARTES, 1, CANELONES, SIN DATOS, 580145, 6169890 
29/11/2016, JOSE ENRIQUE RODO, COLISIÓN ENTRE VEHÍCULOS, LEVE, MARTES, 12, SORIANO, MERCEDES, 403650, 6320385 
31/5/2016, NO SE INGRESO, ATROPELLO DE PEATÓN, LEVE, MARTES, 16, CANELONES, SIN DATOS, 578455, 6177850 
16/2/2016, MANUEL D RODRIGUEZ, COLISIÓN ENTRE VEHÍCULOS, LEVE, MARTES, 18, SAN JOSE, SAN JOSE DE MAYO, 526655, 6201075 
2/2/2016, ZABALA, COLISIÓN ENTRE VEHÍCULOS, LEVE, MARTES, 14, CANELONES, SIN DATOS, 571235, 6159520 
19/7/2016, NO SE INGRESO, DESPISTE, LEVE, MARTES, 7, SAN JOSE, SIN DATOS, 522275, 6177045 
25/5/2016, DIECIOCHO DE JULIO, COLISIÓN ENTRE VEHÍCULOS, LEVE, MIÉRCOLES, 17, SORIANO, MERCEDES, 403895, 6320650 
6/9/2016, NO SE INGRESO, COLISIÓN ENTRE VEHÍCULOS, SIN LESIONADOS, MARTES, 11, CANELONES, SIN DATOS, 572305, 6158570 
13/12/2016, VEINTICINCO DE MAYO, CAÍDA, LEVE, MARTES, 10, SAN JOSE, SAN JOSE DE MAYO, 526600, 6199250 
25/8/2016, RUTA CINCO VIEJA, COLISIÓN ENTRE VEHÍCULOS, LEVE, JUEVES, 20, CANELONES, PROGRESO, 571750, 6163445 
25/8/2016, DOCTOR LUIS CASANELLO, COLISIÓN ENTRE VEHÍCULOS, SIN LESIONADOS, JUEVES, 14, COLONIA, COLONIA DEL SACRAMENTO, 424675, 6185205 
9/6/2016, RUTA CIENTODOS, ATROPELLO DE ANIMALES, LEVE, JUEVES, 10, CANELONES, COLONIA NICOLICH, 590450, 6146570 
11/2/2016, GENERAL FLORES, COLISIÓN ENTRE VEHÍCULOS, LEVE, JUEVES, 19, FLORIDA, FLORIDA, 572990, 6226885 
17/8/2016,  PARAGUAY, COLISIÓN ENTRE VEHÍCULOS, LEVE, MIÉRCOLES, 10, CANELONES, PARQUE CARRASCO, 590465, 6142575 
19/5/2016, PAYSANDU, CAÍDA, LEVE, JUEVES, 8, SORIANO, MERCEDES, 403075, 6320705 
24/5/2016, JOSE ENRIQUE RODO, COLISIÓN ENTRE VEHÍCULOS, SIN LESIONADOS, MARTES, 11, FLORIDA, FLORIDA, 572835, 6227175 
9/3/2016, GENERAL JOSE G. ARTIGAS, COLISIÓN ENTRE VEHÍCULOS, LEVE, MIÉRCOLES, 12, SAN JOSE, SAN JOSE DE MAYO, 526115, 6200780 
3/5/2016, , COLISIÓN ENTRE VEHÍCULOS, LEVE, MARTES, 17, CANELONES, COLONIA NICOLICH, 588105, 6147230 
31/8/2016, RUTA 11 Y RUTA 79, COLISIÓN ENTRE VEHÍCULOS, GRAVE, MIÉRCOLES, 20, SAN JOSE, SIN DATOS, 552735, 6188570 
21/9/2016, NO SE INGRESO, ATROPELLO DE ANIMALES, SIN LESIONADOS, MIÉRCOLES, 3, CANELONES, SIN DATOS, 598715, 6187760 
11/5/2016, APARICIO SARAVIA Y 18 DE JULIO, COLISIÓN ENTRE VEHÍCULOS, LEVE, MIÉRCOLES, 16, FLORES, ISMAEL CORTINAS, 491895, 6242495 
30/8/2016, VIERA Y BENAVIDEZ, CAÍDA, GRAVE, MARTES, 21, SORIANO, MERCEDES, 403745, 6318725 
20/4/2016, NO SE INGRESO, COLISIÓN ENTRE VEHÍCULOS, LEVE, MIÉRCOLES, 14, CANELONES, BARROS BLANCOS, 591095, 6153715 
21/12/2016, NO SE INGRESO, DESPISTE, SIN LESIONADOS, MIÉRCOLES, 22, CANELONES, BARROS BLANCOS, 590650, 6153360 
6/9/2016, DOCTOR POUEY, COLISIÓN ENTRE VEHÍCULOS, LEVE, MARTES, 19, CANELONES, SIN DATOS, 571060, 6155680 
15/11/2016, , ATROPELLO DE ANIMALES, LEVE, MARTES, 23, SAN JOSE, SIN DATOS, 495825, 6197895 
28/9/2016, CORONEL ARROYO, COLISIÓN ENTRE VEHÍCULOS, SIN LESIONADOS, MIÉRCOLES, 13, COLONIA, COLONIA DEL SACRAMENTO, 422805, 6185685 
24/5/2016, DOCTOR LUIS ALBERTO DE HERRERA, COLISIÓN ENTRE VEHÍCULOS, LEVE, MARTES, 19, FLORES, TRINIDAD, 509415, 6291000 
4/10/2016, NO SE INGRESO, COLISIÓN ENTRE VEHÍCULOS, SIN LESIONADOS, MARTES, 8, SAN JOSE, SIN DATOS, 522935, 6176240 
2/2/2016, ROGER BALET Y CALLE 1, COLISIÓN ENTRE VEHÍCULOS, SIN LESIONADOS, MARTES, 19, CANELONES, ATLANTIDA, 612880, 6151630 
4/5/2016, DOCTOR MORQUIO, COLISIÓN ENTRE VEHÍCULOS, SIN LESIONADOS, MIÉRCOLES, 17, DURAZNO, DURAZNO, 545185, 6305730 
5/5/2016, SAN LUIS, COLISIÓN CON OBSTÁCULO EN CALZADA, SIN LESIONADOS, JUEVES, 18, CANELONES, SHANGRILA, 591585, 6143680 
14/12/2016, DOCTOR EDUARDO CALLERI, COLISIÓN ENTRE VEHÍCULOS, LEVE, MIÉRCOLES, 20, DURAZNO, SANTA BERNARDINA, 544170, 6309115 
10/12/2016, , CAÍDA, LEVE, SÁBADO, 2, FLORIDA, SIN DATOS, 555395, 6222685 
28/12/2016, NO SE INGRESO, COLISIÓN ENTRE VEHÍCULOS, LEVE, MIÉRCOLES, 9, CANELONES, EL PINAR, 599550, 6150075 
3/8/2016, DOCTOR POUEY, COLISIÓN ENTRE VEHÍCULOS, LEVE, MIÉRCOLES, 13, CANELONES, SIN DATOS, 571070, 6157235 
6/9/2016, NO SE INGRESO, DESPISTE, LEVE, MARTES, 11, FLORIDA, SIN DATOS, 583365, 6227575 
14/6/2016, DOCTOR EVARISTO G. CIGANDA, DESPISTE, SIN LESIONADOS, MARTES, 10, SAN JOSE, SAN JOSE DE MAYO, 526880, 6200100 
25/8/2016, SAMUEL BERTON, COLISIÓN ENTRE VEHÍCULOS, SIN LESIONADOS, JUEVES, 14, COLONIA, COLONIA DEL SACRAMENTO, 420420, 6188630 
8/9/2016, MANUEL LEDESMA, COLISIÓN ENTRE VEHÍCULOS, SIN LESIONADOS, JUEVES, 17, SORIANO, MERCEDES, 403915, 6320025 
23/6/2016, RAMBLA Y BRISAS DEL MAR, COLISIÓN ENTRE VEHÍCULOS, LEVE, JUEVES, 9, CANELONES, SHANGRILA, 592470, 6142535 
7/6/2016, JOSE BATLLE Y ORDOÑEZ, ATROPELLO DE PEATÓN, LEVE, MARTES, 0, CANELONES, SAN RAMON, 595925, 6204605 
25/10/2016, ANDENES, COLISIÓN ENTRE VEHÍCULOS, SIN LESIONADOS, MARTES, 16, DURAZNO, DURAZNO, 543905, 6305530 
13/1/2016, RUTA UNO, COLISIÓN ENTRE VEHÍCULOS, LEVE, MIÉRCOLES, 20, COLONIA, COLONIA DEL SACRAMENTO, 424025, 6186525 
19/5/2016, CAMINO CARRACO Y GARCIA LAGOS , COLISIÓN ENTRE VEHÍCULOS, LEVE, JUEVES, 17, CANELONES, PASO CARRASCO, 586375, 6141730 
14/7/2016, VICENTE ORCOYEN, COLISIÓN CON OBSTÁCULO EN CALZADA, SIN LESIONADOS, JUEVES, 13, SORIANO, PALMITAS, 425165, 6291920 
23/6/2016, DOCTOR MORQUIO, COLISIÓN ENTRE VEHÍCULOS, LEVE, JUEVES, 12, DURAZNO, DURAZNO, 544530, 6306090 
6/12/2016, , DESPISTE, LEVE, MARTES, 7, COLONIA, SIN DATOS, 421505, 6217565 
8/9/2016, FRANCISCO FONDAR, COLISIÓN ENTRE VEHÍCULOS, LEVE, JUEVES, 10, FLORES, TRINIDAD, 509530, 6291400 
21/7/2016, MANUEL ORIBE, CAÍDA, LEVE, JUEVES, 17, DURAZNO, DURAZNO, 544260, 6306230 
30/6/2016, NO SE INGRESO, CAÍDA, LEVE, JUEVES, 8, CANELONES, BARROS BLANCOS, 593760, 6155885 
26/4/2016, DOCTOR LLAMBIAS DE OLIVAR, CAÍDA, LEVE, MARTES, 19, CANELONES, SANTA ROSA, 587550, 6181770 
5/1/2016, GIANNATTASIO Y BUENOS AIRES, DESPISTE, SIN LESIONADOS, MARTES, 20, CANELONES, SAN JOSE DE CARRASCO, 592395, 6144320 
3/5/2016,  RIO DE LA PLATA, COLISIÓN ENTRE VEHÍCULOS, LEVE, MARTES, 17, SAN JOSE, PLAYA PASCUAL, 550125, 6155095 
6/4/2016, BRIGADIER GENERAL MANUEL ORIBE, COLISIÓN ENTRE VEHÍCULOS, SIN LESIONADOS, MIÉRCOLES, 21, CANELONES, PANDO, 594785, 6157440 
13/9/2016, RUTA 7 Y 80, CAÍDA, LEVE, MARTES, 16, CANELONES, SIN DATOS, 612535, 6196875 
3/5/2016, RUTA 3 km. 180.000, DESPISTE, FATAL, MARTES, 13, FLORES, SIN DATOS, 511785, 6282690 
28/12/2016, NO SE INGRESO, CAÍDA, LEVE, MIÉRCOLES, 20, SORIANO, SIN DATOS, 392735, 6299075 
28/1/2016, NO SE INGRESO, COLISIÓN CON OBSTÁCULO EN CALZADA, SIN LESIONADOS, JUEVES, 13, SAN JOSE, SIN DATOS, 543425, 6192245 
